version 2
run General-0-20221009-18:58:51-11957
attr configname General
attr datetime 20221009-18:58:51
attr experiment General
attr inifile omnetpp.ini
attr iterationvars ""
attr iterationvarsf ""
attr measurement ""
attr network cegNetwork
attr processid 11957
attr repetition 0
attr replication #0
attr resultdir results
attr runnumber 0
attr seedset 0
param *.playgroundSizeX 2500m
param *.playgroundSizeY 2500m
param *.playgroundSizeZ 50m
param *.annotations.draw true
param *.obstacles.debug false
param *.manager.updateInterval 1s
param *.manager.host "\"localhost\""
param *.manager.port 9999
param *.manager.autoShutdown true
param *.manager.launchConfig "xmldoc(\"ceg.launchd.xml\")"
param *.rsu[0].mobility.x 2000
param *.rsu[0].mobility.y 2000
param *.rsu[0].mobility.z 3
param *.rsu[*].applType "\"TraCIDemoRSU11p\""
param *.rsu[*].appl.headerLength "80 bit"
param *.rsu[*].appl.sendBeacons true
param *.rsu[*].appl.dataOnSch false
param *.rsu[*].appl.beaconInterval 5s
param *.rsu[*].appl.beaconUserPriority 7
param *.rsu[*].appl.dataUserPriority 5
param *.rsu[*].nic.phy80211p.antennaOffsetZ "0 m"
param *.connectionManager.sendDirect true
param *.connectionManager.maxInterfDist 2600m
param *.connectionManager.drawMaxIntfDist false
param *.**.nic.mac1609_4.useServiceChannel false
param *.**.nic.mac1609_4.txPower 20mW
param *.**.nic.mac1609_4.bitrate 6Mbps
param *.**.nic.phy80211p.minPowerLevel -110dBm
param *.**.nic.phy80211p.useNoiseFloor true
param *.**.nic.phy80211p.noiseFloor -98dBm
param *.**.nic.phy80211p.decider "xmldoc(\"config.xml\")"
param *.**.nic.phy80211p.analogueModels "xmldoc(\"config.xml\")"
param *.**.nic.phy80211p.usePropagationDelay true
param *.**.nic.phy80211p.antenna "xmldoc(\"antenna.xml\", \"/root/Antenna[@id='monopole']\")"
param *.node[*].nic.phy80211p.antennaOffsetY "0 m"
param *.node[*].nic.phy80211p.antennaOffsetZ "1.895 m"
param *.node[*].applType "\"MyVeinsApp\""
param *.node[*].appl.headerLength "80 bit"
param *.node[*].appl.sendBeacons false
param *.node[*].appl.dataOnSch false
param *.node[*].appl.beaconInterval 1s
param *.node[*].veinsmobility.x 0
param *.node[*].veinsmobility.y 0
param *.node[*].veinsmobility.z 0
param *.node[*].veinsmobility.setHostSpeed false
param *.node[*3].veinsmobility.accidentCount 1
param *.node[*3].veinsmobility.accidentStart 73s
param *.node[*3].veinsmobility.accidentDuration 50s

vector 0 cegNetwork.node[0].veinsmobility posx ETV
vector 1 cegNetwork.node[0].veinsmobility posy ETV
vector 2 cegNetwork.node[1].veinsmobility posx ETV
vector 3 cegNetwork.node[1].veinsmobility posy ETV
vector 4 cegNetwork.node[0].veinsmobility speed ETV
vector 5 cegNetwork.node[1].veinsmobility speed ETV
vector 6 cegNetwork.node[0].veinsmobility acceleration ETV
vector 7 cegNetwork.node[0].veinsmobility co2emission ETV
vector 8 cegNetwork.node[1].veinsmobility acceleration ETV
vector 9 cegNetwork.node[1].veinsmobility co2emission ETV
vector 10 cegNetwork.node[2].veinsmobility posx ETV
vector 11 cegNetwork.node[2].veinsmobility posy ETV
vector 12 cegNetwork.node[2].veinsmobility speed ETV
vector 13 cegNetwork.node[3].veinsmobility posx ETV
vector 14 cegNetwork.node[3].veinsmobility posy ETV
vector 15 cegNetwork.node[2].veinsmobility acceleration ETV
vector 16 cegNetwork.node[2].veinsmobility co2emission ETV
vector 17 cegNetwork.node[3].veinsmobility speed ETV
vector 18 cegNetwork.node[3].veinsmobility acceleration ETV
vector 19 cegNetwork.node[3].veinsmobility co2emission ETV
vector 20 cegNetwork.node[4].veinsmobility posx ETV
vector 21 cegNetwork.node[4].veinsmobility posy ETV
vector 22 cegNetwork.node[4].veinsmobility speed ETV
vector 23 cegNetwork.node[4].veinsmobility acceleration ETV
vector 24 cegNetwork.node[4].veinsmobility co2emission ETV
vector 25 cegNetwork.node[5].veinsmobility posx ETV
vector 26 cegNetwork.node[5].veinsmobility posy ETV
vector 27 cegNetwork.node[5].veinsmobility speed ETV
vector 28 cegNetwork.node[5].veinsmobility acceleration ETV
vector 29 cegNetwork.node[5].veinsmobility co2emission ETV
vector 30 cegNetwork.node[6].veinsmobility posx ETV
vector 31 cegNetwork.node[6].veinsmobility posy ETV
vector 32 cegNetwork.node[6].veinsmobility speed ETV
vector 33 cegNetwork.node[6].veinsmobility acceleration ETV
vector 34 cegNetwork.node[6].veinsmobility co2emission ETV
vector 35 cegNetwork.node[7].veinsmobility posx ETV
vector 36 cegNetwork.node[7].veinsmobility posy ETV
vector 37 cegNetwork.node[7].veinsmobility speed ETV
vector 38 cegNetwork.node[7].veinsmobility acceleration ETV
vector 39 cegNetwork.node[7].veinsmobility co2emission ETV
vector 40 cegNetwork.node[8].veinsmobility posx ETV
vector 41 cegNetwork.node[8].veinsmobility posy ETV
vector 42 cegNetwork.node[8].veinsmobility speed ETV
vector 43 cegNetwork.node[8].veinsmobility acceleration ETV
vector 44 cegNetwork.node[8].veinsmobility co2emission ETV
0	2	1	23.4
0	3	2	23.470721749036
0	4	3	23.612165247107
0	5	4	24.152318611882
0	25	5	25.569118713742
0	26	6	27.96237492324
0	27	7	30.96
0	28	8	34.46
0	29	9	38.46
0	49	10	42.96
0	50	11	47.96
0	51	12	53.46
0	52	13	59.46
0	53	14	65.96
0	73	15	72.94
0	74	16	79.92
0	75	17	86.9
0	76	18	93.88
0	77	19	100.86
0	97	20	107.84
0	98	21	114.82
0	99	22	121.8
0	100	23	128.78
0	101	24	135.76
0	126	25	142.74
0	127	26	149.72
0	128	27	156.7
0	129	28	163.68
0	130	29	170.66
0	160	30	177.64
0	161	31	184.62
0	162	32	191.6
0	163	33	198.58
0	164	34	205.56
0	194	35	212.54
0	195	36	219.52
0	196	37	226.5
0	197	38	233.48
0	198	39	240.96
0	228	40	248.94
0	229	41	257.42
0	230	42	266.4
0	231	43	275.88
0	232	44	285.86
0	262	45	296.34
0	263	46	307.32
0	264	47	318.8
0	265	48	330.78
0	266	49	343.26
0	296	50	356.24
0	297	51	369.72
0	298	52	383.61
0	299	53	397.5
0	300	54	411.39
0	330	55	425.18
0	331	56	439.07
0	332	57	452.96
0	333	58	466.85
0	334	59	480.74
0	364	60	494.63
0	365	61	508.52
0	366	62	522.41
0	367	63	536.3
0	368	64	550.19
0	398	65	564.08
0	399	66	577.97
0	400	67	591.86
0	401	68	605.75
0	402	69	619.64
0	437	70	633.53
0	438	71	647.42
0	439	72	661.31
0	440	73	675.2
0	441	74	689.09
0	481	75	702.98
0	482	76	716.87
0	483	77	730.76
0	484	78	744.65
0	485	79	758.54
0	525	80	772.43
0	526	81	786.32
0	527	82	800.21
0	528	83	814.1
0	529	84	827.99
0	569	85	841.88
0	570	86	855.77
0	571	87	869.66
0	572	88	883.55
0	573	89	897.44
0	618	90	911.33
0	619	91	925.22
0	620	92	939.11
0	621	93	953
0	622	94	966.89
0	677	95	980.78
0	678	96	994.67
0	679	97	1008.56
0	681	98	1022.45
0	682	99	1036.24
1	2	1	321.8
1	3	2	322.29505224325
1	4	3	323.28515672975
1	5	4	324.65386435314
1	25	5	325.98147122825
1	26	6	326.56605356046
1	27	7	326.6
1	28	8	326.6
1	29	9	326.6
1	49	10	326.6
1	50	11	326.6
1	51	12	326.6
1	52	13	326.6
1	53	14	326.6
1	73	15	326.6
1	74	16	326.6
1	75	17	326.6
1	76	18	326.6
1	77	19	326.6
1	97	20	326.6
1	98	21	326.6
1	99	22	326.6
1	100	23	326.6
1	101	24	326.6
1	126	25	326.6
1	127	26	326.6
1	128	27	326.6
1	129	28	326.6
1	130	29	326.6
1	160	30	326.6
1	161	31	326.6
1	162	32	326.6
1	163	33	326.6
1	164	34	326.6
1	194	35	326.6
1	195	36	326.6
1	196	37	326.6
1	197	38	326.6
1	198	39	326.6
1	228	40	326.6
1	229	41	326.6
1	230	42	326.6
1	231	43	326.6
1	232	44	326.6
1	262	45	326.6
1	263	46	326.6
1	264	47	326.6
1	265	48	326.6
1	266	49	326.6
1	296	50	326.6
1	297	51	326.6
1	298	52	326.6
1	299	53	326.6
1	300	54	326.6
1	330	55	326.6
1	331	56	326.6
1	332	57	326.6
1	333	58	326.6
1	334	59	326.6
1	364	60	326.6
1	365	61	326.6
1	366	62	326.6
1	367	63	326.6
1	368	64	326.6
1	398	65	326.6
1	399	66	326.6
1	400	67	326.6
1	401	68	326.6
1	402	69	326.6
1	437	70	326.6
1	438	71	326.6
1	439	72	326.6
1	440	73	326.6
1	441	74	326.6
1	481	75	326.6
1	482	76	326.6
1	483	77	326.6
1	484	78	326.6
1	485	79	326.6
1	525	80	326.6
1	526	81	326.6
1	527	82	326.6
1	528	83	326.6
1	529	84	326.6
1	569	85	326.6
1	570	86	326.6
1	571	87	326.6
1	572	88	326.6
1	573	89	326.6
1	618	90	326.6
1	619	91	326.6
1	620	92	326.6
1	621	93	326.6
1	622	94	326.6
1	677	95	326.6
1	678	96	326.6
1	679	97	326.6
1	681	98	326.6
1	682	99	326.6
2	2	1	1323.4
2	3	2	1323.329278251
2	4	3	1322.8198982921
2	5	4	1321.38
2	25	5	1319.38
2	26	6	1316.88
2	27	7	1313.88
2	28	8	1310.38
2	29	9	1306.38
2	49	10	1302
2	50	11	1297.62
2	51	12	1293.24
2	52	13	1288.86
2	53	14	1284.48
2	73	15	1280.1
2	74	16	1275.72
2	75	17	1271.34
2	76	18	1266.96
2	77	19	1262.58
2	97	20	1258.2
2	98	21	1253.82
2	99	22	1249.44
2	100	23	1245.06
2	101	24	1240.68
2	126	25	1236.3
2	127	26	1231.92
2	128	27	1227.54
2	129	28	1223.16
2	130	29	1218.78
2	160	30	1214.4
2	161	31	1210.02
2	162	32	1205.64
2	163	33	1201.26
2	164	34	1196.88
2	194	35	1192.5
2	195	36	1188.12
2	196	37	1183.74
2	197	38	1179.36
2	198	39	1174.98
2	228	40	1170.6
2	229	41	1166.22
2	230	42	1161.84
2	231	43	1157.46
2	232	44	1153.08
2	262	45	1148.7
2	263	46	1144.32
2	264	47	1139.94
2	265	48	1135.56
2	266	49	1131.18
2	296	50	1126.8
2	297	51	1122.42
2	298	52	1118.04
2	299	53	1113.16
2	300	54	1107.78
2	330	55	1101.9
2	331	56	1095.52
2	332	57	1088.64
2	333	58	1081.26
2	334	59	1073.38
2	364	60	1065
2	365	61	1056.12
2	366	62	1046.74
2	367	63	1036.86
2	368	64	1026.48
2	398	65	1015.7
2	399	66	1004.32
2	400	67	992.44
2	401	68	980.06
2	402	69	967.18
2	437	70	953.8
2	438	71	939.92
2	439	72	926.03
2	440	73	912.14
2	441	74	898.25
2	481	75	884.36
2	482	76	870.47
2	483	77	856.58
2	484	78	842.69
2	485	79	828.8
2	525	80	814.91
2	526	81	801.02
2	527	82	787.13
2	528	83	773.24
2	529	84	759.35
2	569	85	745.46
2	570	86	731.57
2	571	87	717.68
2	572	88	703.79
2	573	89	689.9
2	618	90	676.01
2	619	91	662.12
2	620	92	648.23
2	621	93	634.34
2	622	94	620.45
2	677	95	606.56
2	678	96	592.67
2	679	97	578.78
2	681	98	564.89
2	682	99	551
3	2	1	321.8
3	3	2	322.29505224325
3	4	3	323.10806102472
3	5	4	323.4
3	25	5	323.4
3	26	6	323.4
3	27	7	323.4
3	28	8	323.4
3	29	9	323.4
3	49	10	323.4
3	50	11	323.4
3	51	12	323.4
3	52	13	323.4
3	53	14	323.4
3	73	15	323.4
3	74	16	323.4
3	75	17	323.4
3	76	18	323.4
3	77	19	323.4
3	97	20	323.4
3	98	21	323.4
3	99	22	323.4
3	100	23	323.4
3	101	24	323.4
3	126	25	323.4
3	127	26	323.4
3	128	27	323.4
3	129	28	323.4
3	130	29	323.4
3	160	30	323.4
3	161	31	323.4
3	162	32	323.4
3	163	33	323.4
3	164	34	323.4
3	194	35	323.4
3	195	36	323.4
3	196	37	323.4
3	197	38	323.4
3	198	39	323.4
3	228	40	323.4
3	229	41	323.4
3	230	42	323.4
3	231	43	323.4
3	232	44	323.4
3	262	45	323.4
3	263	46	323.4
3	264	47	323.4
3	265	48	323.4
3	266	49	323.4
3	296	50	323.4
3	297	51	323.4
3	298	52	323.4
3	299	53	323.4
3	300	54	323.4
3	330	55	323.4
3	331	56	323.4
3	332	57	323.4
3	333	58	323.4
3	334	59	323.4
3	364	60	323.4
3	365	61	323.4
3	366	62	323.4
3	367	63	323.4
3	368	64	323.4
3	398	65	323.4
3	399	66	323.4
3	400	67	323.4
3	401	68	323.4
3	402	69	323.4
3	437	70	323.4
3	438	71	323.4
3	439	72	323.4
3	440	73	323.4
3	441	74	323.4
3	481	75	323.4
3	482	76	323.4
3	483	77	323.4
3	484	78	323.4
3	485	79	323.4
3	525	80	323.4
3	526	81	323.4
3	527	82	323.4
3	528	83	323.4
3	529	84	323.4
3	569	85	323.4
3	570	86	323.4
3	571	87	323.4
3	572	88	323.4
3	573	89	323.4
3	618	90	323.4
3	619	91	323.4
3	620	92	323.4
3	621	93	323.4
3	622	94	323.4
3	677	95	323.4
3	678	96	323.4
3	679	97	323.4
3	681	98	323.4
3	682	99	323.4
4	3	2	0.5
4	4	3	1
4	5	4	1.5
4	25	5	2
4	26	6	2.5
4	27	7	3
4	28	8	3.5
4	29	9	4
4	49	10	4.5
4	50	11	5
4	51	12	5.5
4	52	13	6
4	53	14	6.5
4	73	15	6.98
4	74	16	6.98
4	75	17	6.98
4	76	18	6.98
4	77	19	6.98
4	97	20	6.98
4	98	21	6.98
4	99	22	6.98
4	100	23	6.98
4	101	24	6.98
4	126	25	6.98
4	127	26	6.98
4	128	27	6.98
4	129	28	6.98
4	130	29	6.98
4	160	30	6.98
4	161	31	6.98
4	162	32	6.98
4	163	33	6.98
4	164	34	6.98
4	194	35	6.98
4	195	36	6.98
4	196	37	6.98
4	197	38	6.98
4	198	39	7.48
4	228	40	7.98
4	229	41	8.48
4	230	42	8.98
4	231	43	9.48
4	232	44	9.98
4	262	45	10.48
4	263	46	10.98
4	264	47	11.48
4	265	48	11.98
4	266	49	12.48
4	296	50	12.98
4	297	51	13.48
4	298	52	13.89
4	299	53	13.89
4	300	54	13.89
4	330	55	13.89
4	331	56	13.89
4	332	57	13.89
4	333	58	13.89
4	334	59	13.89
4	364	60	13.89
4	365	61	13.89
4	366	62	13.89
4	367	63	13.89
4	368	64	13.89
4	398	65	13.89
4	399	66	13.89
4	400	67	13.89
4	401	68	13.89
4	402	69	13.89
4	437	70	13.89
4	438	71	13.89
4	439	72	13.89
4	440	73	13.89
4	441	74	13.89
4	481	75	13.89
4	482	76	13.89
4	483	77	13.89
4	484	78	13.89
4	485	79	13.89
4	525	80	13.89
4	526	81	13.89
4	527	82	13.89
4	528	83	13.89
4	529	84	13.89
4	569	85	13.89
4	570	86	13.89
4	571	87	13.89
4	572	88	13.89
4	573	89	13.89
4	618	90	13.89
4	619	91	13.89
4	620	92	13.89
4	621	93	13.89
4	622	94	13.89
4	677	95	13.89
4	678	96	13.89
4	679	97	13.89
4	681	98	13.89
4	682	99	13.89
5	3	2	0.5
5	4	3	1
5	5	4	1.5
5	25	5	2
5	26	6	2.5
5	27	7	3
5	28	8	3.5
5	29	9	4
5	49	10	4.38
5	50	11	4.38
5	51	12	4.38
5	52	13	4.38
5	53	14	4.38
5	73	15	4.38
5	74	16	4.38
5	75	17	4.38
5	76	18	4.38
5	77	19	4.38
5	97	20	4.38
5	98	21	4.38
5	99	22	4.38
5	100	23	4.38
5	101	24	4.38
5	126	25	4.38
5	127	26	4.38
5	128	27	4.38
5	129	28	4.38
5	130	29	4.38
5	160	30	4.38
5	161	31	4.38
5	162	32	4.38
5	163	33	4.38
5	164	34	4.38
5	194	35	4.38
5	195	36	4.38
5	196	37	4.38
5	197	38	4.38
5	198	39	4.38
5	228	40	4.38
5	229	41	4.38
5	230	42	4.38
5	231	43	4.38
5	232	44	4.38
5	262	45	4.38
5	263	46	4.38
5	264	47	4.38
5	265	48	4.38
5	266	49	4.38
5	296	50	4.38
5	297	51	4.38
5	298	52	4.38
5	299	53	4.88
5	300	54	5.38
5	330	55	5.88
5	331	56	6.38
5	332	57	6.88
5	333	58	7.38
5	334	59	7.88
5	364	60	8.38
5	365	61	8.88
5	366	62	9.38
5	367	63	9.88
5	368	64	10.38
5	398	65	10.88
5	399	66	11.38
5	400	67	11.88
5	401	68	12.38
5	402	69	12.88
5	437	70	13.38
5	438	71	13.88
5	439	72	13.89
5	440	73	13.89
5	441	74	13.89
5	481	75	13.89
5	482	76	13.89
5	483	77	13.89
5	484	78	13.89
5	485	79	13.89
5	525	80	13.89
5	526	81	13.89
5	527	82	13.89
5	528	83	13.89
5	529	84	13.89
5	569	85	13.89
5	570	86	13.89
5	571	87	13.89
5	572	88	13.89
5	573	89	13.89
5	618	90	13.89
5	619	91	13.89
5	620	92	13.89
5	621	93	13.89
5	622	94	13.89
5	677	95	13.89
5	678	96	13.89
5	679	97	13.89
5	681	98	13.89
5	682	99	13.89
6	4	3	0.5
6	5	4	0.5
6	25	5	0.5
6	26	6	0.5
6	27	7	0.5
6	28	8	0.5
6	29	9	0.5
6	49	10	0.5
6	50	11	0.5
6	51	12	0.5
6	52	13	0.5
6	53	14	0.5
6	73	15	0.48
6	74	16	0
6	75	17	0
6	76	18	0
6	77	19	0
6	97	20	0
6	98	21	0
6	99	22	0
6	100	23	0
6	101	24	0
6	126	25	0
6	127	26	0
6	128	27	0
6	129	28	0
6	130	29	0
6	160	30	0
6	161	31	0
6	162	32	0
6	163	33	0
6	164	34	0
6	194	35	0
6	195	36	0
6	196	37	0
6	197	38	0
6	198	39	0.5
6	228	40	0.5
6	229	41	0.5
6	230	42	0.5
6	231	43	0.5
6	232	44	0.5
6	262	45	0.5
6	263	46	0.5
6	264	47	0.5
6	265	48	0.5
6	266	49	0.5
6	296	50	0.5
6	297	51	0.5
6	298	52	0.41
6	299	53	0
6	300	54	0
6	330	55	0
6	331	56	0
6	332	57	0
6	333	58	0
6	334	59	0
6	364	60	0
6	365	61	0
6	366	62	0
6	367	63	0
6	368	64	0
6	398	65	0
6	399	66	0
6	400	67	0
6	401	68	0
6	402	69	0
6	437	70	0
6	438	71	0
6	439	72	0
6	440	73	0
6	441	74	0
6	481	75	0
6	482	76	0
6	483	77	0
6	484	78	0
6	485	79	0
6	525	80	0
6	526	81	0
6	527	82	0
6	528	83	0
6	529	84	0
6	569	85	0
6	570	86	0
6	571	87	0
6	572	88	0
6	573	89	0
6	618	90	0
6	619	91	0
6	620	92	0
6	621	93	0
6	622	94	0
6	677	95	0
6	678	96	0
6	679	97	0
6	681	98	0
6	682	99	0
7	4	3	1.27883237888
7	5	4	1.36342177872
7	25	5	1.44821903104
7	26	6	1.53329342
7	27	7	1.61871422976
7	28	8	1.70455074448
7	29	9	1.79087224832
7	49	10	1.87774802544
7	50	11	1.96524736
7	51	12	2.05343953616
7	52	13	2.14239383808
7	53	14	2.23217954992
7	73	15	2.2855767371764
7	74	16	1.4781303371764
7	75	17	1.4781303371764
7	76	18	1.4781303371764
7	77	19	1.4781303371764
7	97	20	1.4781303371764
7	98	21	1.4781303371764
7	99	22	1.4781303371764
7	100	23	1.4781303371764
7	101	24	1.4781303371764
7	126	25	1.4781303371764
7	127	26	1.4781303371764
7	128	27	1.4781303371764
7	129	28	1.4781303371764
7	130	29	1.4781303371764
7	160	30	1.4781303371764
7	161	31	1.4781303371764
7	162	32	1.4781303371764
7	163	33	1.4781303371764
7	164	34	1.4781303371764
7	194	35	1.4781303371764
7	195	36	1.4781303371764
7	196	37	1.4781303371764
7	197	38	1.4781303371764
7	198	39	2.4108365919509
7	228	40	2.503489337759
7	229	41	2.5972478587607
7	230	42	2.6921814391161
7	231	43	2.788359362985
7	232	44	2.8858509145275
7	262	45	2.9847253779037
7	263	46	3.0850520372734
7	264	47	3.1869001767967
7	265	48	3.2903390806336
7	266	49	3.3954380329442
7	296	50	3.5022663178883
7	297	51	3.610893219626
7	298	52	3.4000839047521
7	299	53	2.0276130047521
7	300	54	2.0276130047521
7	330	55	2.0276130047521
7	331	56	2.0276130047521
7	332	57	2.0276130047521
7	333	58	2.0276130047521
7	334	59	2.0276130047521
7	364	60	2.0276130047521
7	365	61	2.0276130047521
7	366	62	2.0276130047521
7	367	63	2.0276130047521
7	368	64	2.0276130047521
7	398	65	2.0276130047521
7	399	66	2.0276130047521
7	400	67	2.0276130047521
7	401	68	2.0276130047521
7	402	69	2.0276130047521
7	437	70	2.0276130047521
7	438	71	2.0276130047521
7	439	72	2.0276130047521
7	440	73	2.0276130047521
7	441	74	2.0276130047521
7	481	75	2.0276130047521
7	482	76	2.0276130047521
7	483	77	2.0276130047521
7	484	78	2.0276130047521
7	485	79	2.0276130047521
7	525	80	2.0276130047521
7	526	81	2.0276130047521
7	527	82	2.0276130047521
7	528	83	2.0276130047521
7	529	84	2.0276130047521
7	569	85	2.0276130047521
7	570	86	2.0276130047521
7	571	87	2.0276130047521
7	572	88	2.0276130047521
7	573	89	2.0276130047521
7	618	90	2.0276130047521
7	619	91	2.0276130047521
7	620	92	2.0276130047521
7	621	93	2.0276130047521
7	622	94	2.0276130047521
7	677	95	2.0276130047521
7	678	96	2.0276130047521
7	679	97	2.0276130047521
7	681	98	2.0276130047521
7	682	99	2.0276130047521
8	4	3	0.5
8	5	4	0.5
8	25	5	0.5
8	26	6	0.5
8	27	7	0.5
8	28	8	0.5
8	29	9	0.5
8	49	10	0.38
8	50	11	0
8	51	12	0
8	52	13	0
8	53	14	0
8	73	15	0
8	74	16	0
8	75	17	0
8	76	18	0
8	77	19	0
8	97	20	0
8	98	21	0
8	99	22	0
8	100	23	0
8	101	24	0
8	126	25	0
8	127	26	0
8	128	27	0
8	129	28	0
8	130	29	0
8	160	30	0
8	161	31	0
8	162	32	0
8	163	33	0
8	164	34	0
8	194	35	0
8	195	36	0
8	196	37	0
8	197	38	0
8	198	39	0
8	228	40	0
8	229	41	0
8	230	42	0
8	231	43	0
8	232	44	0
8	262	45	0
8	263	46	0
8	264	47	0
8	265	48	0
8	266	49	0
8	296	50	0
8	297	51	0
8	298	52	0
8	299	53	0.5
8	300	54	0.5
8	330	55	0.5
8	331	56	0.5
8	332	57	0.5
8	333	58	0.5
8	334	59	0.5
8	364	60	0.5
8	365	61	0.5
8	366	62	0.5
8	367	63	0.5
8	368	64	0.5
8	398	65	0.5
8	399	66	0.5
8	400	67	0.5
8	401	68	0.5
8	402	69	0.5
8	437	70	0.5
8	438	71	0.5
8	439	72	0.010000000000002
8	440	73	0
8	441	74	0
8	481	75	0
8	482	76	0
8	483	77	0
8	484	78	0
8	485	79	0
8	525	80	0
8	526	81	0
8	527	82	0
8	528	83	0
8	529	84	0
8	569	85	0
8	570	86	0
8	571	87	0
8	572	88	0
8	573	89	0
8	618	90	0
8	619	91	0
8	620	92	0
8	621	93	0
8	622	94	0
8	677	95	0
8	678	96	0
8	679	97	0
8	681	98	0
8	682	99	0
9	4	3	1.27883237888
9	5	4	1.36342177872
9	25	5	1.44821903104
9	26	6	1.53329342
9	27	7	1.61871422976
9	28	8	1.70455074448
9	29	9	1.79087224832
9	49	10	1.7301739822284
9	50	11	1.3290535822284
9	51	12	1.3290535822284
9	52	13	1.3290535822284
9	53	14	1.3290535822284
9	73	15	1.3290535822284
9	74	16	1.3290535822284
9	75	17	1.3290535822284
9	76	18	1.3290535822284
9	77	19	1.3290535822284
9	97	20	1.3290535822284
9	98	21	1.3290535822284
9	99	22	1.3290535822284
9	100	23	1.3290535822284
9	101	24	1.3290535822284
9	126	25	1.3290535822284
9	127	26	1.3290535822284
9	128	27	1.3290535822284
9	129	28	1.3290535822284
9	130	29	1.3290535822284
9	160	30	1.3290535822284
9	161	31	1.3290535822284
9	162	32	1.3290535822284
9	163	33	1.3290535822284
9	164	34	1.3290535822284
9	194	35	1.3290535822284
9	195	36	1.3290535822284
9	196	37	1.3290535822284
9	197	38	1.3290535822284
9	198	39	1.3290535822284
9	228	40	1.3290535822284
9	229	41	1.3290535822284
9	230	42	1.3290535822284
9	231	43	1.3290535822284
9	232	44	1.3290535822284
9	262	45	1.3290535822284
9	263	46	1.3290535822284
9	264	47	1.3290535822284
9	265	48	1.3290535822284
9	266	49	1.3290535822284
9	296	50	1.3290535822284
9	297	51	1.3290535822284
9	298	52	1.3290535822284
9	299	53	1.9441869442874
9	300	54	2.032206519748
9	330	55	2.1209715927702
9	331	56	2.210551447514
9	332	57	2.3010153681394
9	333	58	2.3924326388064
9	334	59	2.484872543675
9	364	60	2.5784043669052
9	365	61	2.673097392657
9	366	62	2.7690209050904
9	367	63	2.8662441883655
9	368	64	2.9648365266421
9	398	65	3.0648672040803
9	399	66	3.1664055048401
9	400	67	3.2695207130815
9	401	68	3.3742821129645
9	402	69	3.4807589886491
9	437	70	3.5890206242953
9	438	71	3.6991363040631
9	439	72	2.0610879047521
9	440	73	2.0276130047521
9	441	74	2.0276130047521
9	481	75	2.0276130047521
9	482	76	2.0276130047521
9	483	77	2.0276130047521
9	484	78	2.0276130047521
9	485	79	2.0276130047521
9	525	80	2.0276130047521
9	526	81	2.0276130047521
9	527	82	2.0276130047521
9	528	83	2.0276130047521
9	529	84	2.0276130047521
9	569	85	2.0276130047521
9	570	86	2.0276130047521
9	571	87	2.0276130047521
9	572	88	2.0276130047521
9	573	89	2.0276130047521
9	618	90	2.0276130047521
9	619	91	2.0276130047521
9	620	92	2.0276130047521
9	621	93	2.0276130047521
9	622	94	2.0276130047521
9	677	95	2.0276130047521
9	678	96	2.0276130047521
9	679	97	2.0276130047521
9	681	98	2.0276130047521
9	682	99	2.0276130047521
10	100	23	1119.9
10	101	24	1117.623063165
10	126	25	1113.6427136772
10	127	26	1107.6473322375
10	128	27	1099.9220162804
10	129	28	1090.1309233637
10	130	29	1078.9367291351
10	160	30	1065.4809245112
10	161	31	1050.0255392201
10	162	32	1034.7745167567
10	163	33	1020.2831318797
10	164	34	1005.3280046478
10	194	35	989.94300405774
10	195	36	974.98090842294
10	196	37	960.2981534376
10	197	38	945.37472967459
10	198	39	934.12284775823
10	228	40	924.00277268042
10	229	41	920.31429154565
10	230	42	917
10	231	43	917
10	232	44	917
10	262	45	917
10	263	46	917
10	264	47	917
10	265	48	916.66434470678
10	266	49	908.56901418818
10	296	50	898.21366202938
10	297	51	887.76368609497
10	298	52	877.704179012
10	299	53	867.16506049183
10	300	54	856.78563536449
10	330	55	846.08614453018
10	331	56	837.50793008294
10	332	57	832.08784110087
10	333	58	824.73803508687
10	334	59	815.55199321729
10	364	60	803.84350481178
10	365	61	790.01954090518
10	366	62	775.06137481045
10	367	63	760.27752675249
10	368	64	745.20151574777
10	398	65	730.93835378679
10	399	66	716.41303278819
10	400	67	701.86518779235
10	401	68	687.31093402649
10	402	69	672.86648523835
10	437	70	657.82065121813
10	438	71	644.59846328578
10	439	72	635.87627535343
10	440	73	633
10	441	74	633
10	481	75	633
10	482	76	633
10	483	77	633
10	484	78	633
10	485	79	633
10	525	80	633
10	526	81	633
10	527	82	633
10	528	83	633
10	529	84	633
10	569	85	633
10	570	86	633
10	571	87	633
10	572	88	633
10	573	89	633
10	618	90	633
10	619	91	633.0572384757
10	620	92	633.38688325634
10	621	93	635.75640549975
10	622	94	643.10102592524
10	677	95	652.18011938458
10	678	96	663.18400392186
10	679	97	676.40449701961
10	681	98	690.91122553936
10	682	99	705.68959929287
11	100	23	17
11	101	24	17
11	126	25	17
11	127	26	17
11	128	27	17
11	129	28	17
11	130	29	17
11	160	30	20.2
11	161	31	20.2
11	162	32	20.2
11	163	33	20.2
11	164	34	20.2
11	194	35	20.2
11	195	36	20.2
11	196	37	20.2
11	197	38	20.2
11	198	39	20.268164605967
11	228	40	23.678336391746
11	229	41	33.79995918044
11	230	42	44.376909339587
11	231	43	56.614796087643
11	232	44	71.338752139591
11	262	45	86.062169136009
11	263	46	100.63579321978
11	264	47	114.90347383447
11	265	48	128.17129409594
11	266	49	139.17098581182
11	296	50	149.52633797062
11	297	51	159.97631390503
11	298	52	170.035820988
11	299	53	180.57493950817
11	300	54	190.95436463551
11	330	55	201.65385546982
11	331	56	210.23206991706
11	332	57	215.60178667514
11	333	58	217
11	334	59	217
11	364	60	217
11	365	61	217
11	366	62	217
11	367	63	217
11	368	64	217
11	398	65	217
11	399	66	217
11	400	67	217
11	401	68	217
11	402	69	217
11	437	70	217
11	438	71	217
11	439	72	217
11	440	73	215.03408742109
11	441	74	209.33478746858
11	481	75	202.0761756424
11	482	76	192.58794157129
11	483	77	180.95015631033
11	484	78	166.80760434509
11	485	79	156.00984716188
11	525	80	148.81263194182
11	526	81	144.8591833764
11	527	82	144.2958312465
11	528	83	144.15846864337
11	529	84	144.13844807975
11	569	85	144.13223250811
11	570	86	144.13144779224
11	571	87	144.13119134374
11	572	88	144.13108121634
11	573	89	144.13108121634
11	618	90	144.13108121634
11	619	91	142.40552443615
11	620	92	138.58864769275
11	621	93	134.0573311717
11	622	94	129.8
11	677	95	126.6
11	678	96	126.6
11	679	97	126.6
11	681	98	126.6
11	682	99	126.6
12	101	24	2.2769368349575
12	126	25	3.9803494878346
12	127	26	5.9953814396868
12	128	27	7.7253159571206
12	129	28	9.7910929166945
12	130	29	11.194194228575
12	160	30	13.45580462392
12	161	31	15.455385291084
12	162	32	15.251022463428
12	163	33	14.491384877028
12	164	34	14.955127231843
12	194	35	15.385000590092
12	195	36	14.962095634799
12	196	37	14.682754985333
12	197	38	14.923423763012
12	198	39	11.256650773099
12	228	40	10.891644370173
12	229	41	11.038397773112
12	230	42	10.584946097795
12	231	43	12.237886748057
12	232	44	14.723956051947
12	262	45	14.723416996418
12	263	46	14.573624083769
12	264	47	14.267680614694
12	265	48	13.29469503472
12	266	49	14.095882810773
12	296	50	14.644463515208
12	297	51	14.778279768695
12	298	52	14.22608156616
12	299	53	14.904344563486
12	300	54	14.678507331779
12	330	55	15.131141920757
12	331	56	12.131248321815
12	332	57	7.6312483218148
12	333	58	7.7025979234486
12	334	59	9.1860418695839
12	364	60	11.708488405507
12	365	61	13.823963906604
12	366	62	14.958166094726
12	367	63	14.783848057963
12	368	64	15.076011004715
12	398	65	14.263161960986
12	399	66	14.525320998599
12	400	67	14.547844995834
12	401	68	14.554253765867
12	402	69	14.444448788135
12	437	70	15.045834020219
12	438	71	13.222187932348
12	439	72	8.7221879323484
12	440	73	4.2221879323484
12	441	74	5.6992999525047
12	481	75	7.2586118261801
12	482	76	9.4882340711081
12	483	77	11.637785260962
12	484	78	14.142551965244
12	485	79	10.797757183208
12	525	80	7.1972152200591
12	526	81	3.9534485654239
12	527	82	0.56335212989859
12	528	83	0.1373626031312
12	529	84	0.020020563617887
12	569	85	0.0062155716413989
12	570	86	0.00078471586443871
12	571	87	0.00025644850132897
12	572	88	0.000110127401753
12	573	89	0
12	618	90	0
12	619	91	1.7274763863767
12	620	92	3.8325900158612
12	621	93	5.221785907913
12	622	94	7.6102548314258
12	677	95	9.0790934593417
12	678	96	11.003884537285
12	679	97	13.220493097743
12	681	98	14.506728519752
12	682	99	14.778373753509
13	126	25	1030.1
13	127	26	1032.0570178572
13	128	27	1036.446108757
13	129	28	1043.1386916183
13	130	29	1052.3345848887
13	160	30	1063.7983620637
13	161	31	1077.069219661
13	162	32	1091.1159954777
13	163	33	1103.4801306389
13	164	34	1111.3442658001
13	194	35	1116.6522416008
13	195	36	1117
13	196	37	1117
13	197	38	1117
13	198	39	1117
13	228	40	1117
13	229	41	1120.2
13	230	42	1120.2
13	231	43	1120.2
13	232	44	1117.8853991581
13	262	45	1111.9224141596
13	263	46	1104.5601765864
13	264	47	1094.9938363839
13	265	48	1083.5419043207
13	266	49	1070.3628958301
13	296	50	1056.1667726182
13	297	51	1042.1509479684
13	298	52	1027.6894197034
13	299	53	1014.3718431657
13	300	54	1000.3876488021
13	330	55	987.01467683191
13	331	56	973.06732249512
13	332	57	959.13045395614
13	333	58	944.67830557682
13	334	59	934.7261571975
13	364	60	930.04106579388
13	365	61	929.8
13	366	62	929.8
13	367	63	929.8
13	368	64	929.8
13	398	65	929.8
13	399	66	929.8
13	400	67	929.8
13	401	68	929.8
13	402	69	929.8
13	437	70	929.8
13	438	71	929.8
13	439	72	929.8
13	440	73	933
13	441	74	933
13	481	75	933
13	482	76	933
13	483	77	933
13	484	78	933
13	485	79	933
13	525	80	933
13	526	81	933
13	527	82	933
13	528	83	933
13	529	84	933
13	569	85	933
13	570	86	933
13	571	87	933
13	572	88	933
13	573	89	933
13	618	90	933
13	619	91	933
13	620	92	933
13	621	93	929.8
13	622	94	929.8
13	677	95	929.8
13	678	96	926.6
13	679	97	926.6
13	681	98	926.6
13	682	99	926.6
14	126	25	133
14	127	26	133
14	128	27	133
14	129	28	133
14	130	29	133
14	160	30	133
14	161	31	133
14	162	32	133
14	163	33	133
14	164	34	133
14	194	35	136.1656912053
14	195	36	141.89627512229
14	196	37	150.10365352028
14	197	38	159.80374717087
14	198	39	170.83701280538
14	228	40	183.28770659123
14	229	41	196.90235627362
14	230	42	208.37844078873
14	231	43	215.35452530384
14	232	44	219.66876050516
14	262	45	220.2
14	263	46	220.2
14	264	47	220.2
14	265	48	220.2
14	266	49	220.2
14	296	50	220.2
14	297	51	220.2
14	298	52	220.2
14	299	53	220.2
14	300	54	220.2
14	330	55	220.2
14	331	56	220.2
14	332	57	220.2
14	333	58	220.2
14	334	59	220.2
14	364	60	217.08746055716
14	365	61	211.23037753709
14	366	62	203.2433314873
14	367	63	193.69179131697
14	368	64	182.77617975167
14	398	65	169.49903341034
14	399	66	157.49461439339
14	400	67	149.57640549337
14	401	68	145.38195877884
14	402	69	144.50431747455
14	437	70	144.16012224206
14	438	71	144.13749182474
14	439	72	144.13150634455
14	440	73	144.13102531088
14	441	74	144.13102531088
14	481	75	144.13102531088
14	482	76	144.13102531088
14	483	77	144.13102531088
14	484	78	144.13102531088
14	485	79	144.13102531088
14	525	80	144.13102531088
14	526	81	144.13102531088
14	527	82	144.13102531088
14	528	83	144.13102531088
14	529	84	144.13102531088
14	569	85	144.13102531088
14	570	86	144.13102531088
14	571	87	144.13102531088
14	572	88	144.13102531088
14	573	89	144.13102531088
14	618	90	144.13102531088
14	619	91	142.07482091038
14	620	92	137.81705469856
14	621	93	131.88535188832
14	622	94	123.90715511386
14	677	95	114.04332300935
14	678	96	101.58685768924
14	679	97	87.554846120943
14	681	98	78.022834552642
14	682	99	72.990822984341
15	126	25	1.7034126528772
15	127	26	2.0150319518521
15	128	27	1.7299345174339
15	129	28	2.0657769595738
15	130	29	1.4031013118802
15	160	30	2.2616103953449
15	161	31	1.9995806671646
15	162	32	-0.20436282765586
15	163	33	-0.75963758639991
15	164	34	0.46374235481489
15	194	35	0.42987335824873
15	195	36	-0.42290495529305
15	196	37	-0.27934064946603
15	197	38	0.24066877767909
15	198	39	-3.6667729899127
15	228	40	-0.36500640292652
15	229	41	0.14675340293907
15	230	42	-0.45345167531632
15	231	43	1.652940650261
15	232	44	2.4860693038907
15	262	45	-0.00053905552924682
15	263	46	-0.14979291264899
15	264	47	-0.30594346907456
15	265	48	-0.97298557997408
15	266	49	0.80118777605239
15	296	50	0.54858070443577
15	297	51	0.13381625348702
15	298	52	-0.55219820253551
15	299	53	0.67826299732551
15	300	54	-0.22583723170683
15	330	55	0.45263458897825
15	331	56	-2.9998935989421
15	332	57	-4.5
15	333	58	0.071349601633848
15	334	59	1.4834439461352
15	364	60	2.5224465359235
15	365	61	2.1154755010968
15	366	62	1.1342021881221
15	367	63	-0.174318036763
15	368	64	0.29216294675134
15	398	65	-0.81284904372878
15	399	66	0.26215903761331
15	400	67	0.022523997235112
15	401	68	0.0064087700331594
15	402	69	-0.10980497773271
15	437	70	0.60138523208443
15	438	71	-1.8236460878708
15	439	72	-4.5
15	440	73	-4.5
15	441	74	1.4771120201563
15	481	75	1.5593118736753
15	482	76	2.229622244928
15	483	77	2.1495511898538
15	484	78	2.5047667042818
15	485	79	-3.3447947820357
15	525	80	-3.6005419631489
15	526	81	-3.2437666546352
15	527	82	-3.3900964355253
15	528	83	-0.42598952676739
15	529	84	-0.11734203951331
15	569	85	-0.013804991976488
15	570	86	-0.0054308557769602
15	571	87	-0.00052826736310974
15	572	88	-0.00014632109957597
15	573	89	-0.000110127401753
15	618	90	0
15	619	91	1.7274763863767
15	620	92	2.1051136294845
15	621	93	1.3891958920518
15	622	94	2.3884689235128
15	677	95	1.4688386279158
15	678	96	1.9247910779435
15	679	97	2.2166085604578
15	681	98	1.286235422009
15	682	99	0.27164523375686
16	126	25	2.9418604219272
16	127	26	4.3306183198358
16	128	27	4.7460546620364
16	129	28	6.5435493394779
16	130	29	5.5648797317791
16	160	30	9.3182305901336
16	161	31	9.6445469915114
16	162	32	1.4222693023278
16	163	33	0.973
16	164	34	3.8118378914558
16	194	35	3.7824576497901
16	195	36	0.973
16	196	37	1.122249040207
16	197	38	3.002510168778
16	198	39	0.973
16	228	40	0.973
16	229	41	2.1571420178967
16	230	42	0.973
16	231	43	6.7447379260525
16	232	44	10.936915075891
16	262	45	2.1131931148357
16	263	46	1.5728627649973
16	264	47	0.973
16	265	48	0.973
16	266	49	4.7704382315763
16	296	50	4.0426937198754
16	297	51	2.5976561007568
16	298	52	0.973
16	299	53	4.5711223572743
16	300	54	1.3113458077441
16	330	55	3.8105338076137
16	331	56	0.973
16	332	57	0.973
16	333	58	1.6562381607607
16	334	59	4.9088438141819
16	364	60	8.9407976368038
16	365	61	9.0687792594004
16	366	62	6.2294652528086
16	367	63	1.5005875064944
16	368	64	3.2153303561556
16	398	65	0.973
16	399	66	3.011522575315
16	400	67	2.1751834703606
16	401	68	2.1193781075667
16	402	69	1.7029608577143
16	437	70	4.3311070239952
16	438	71	0.973
16	439	72	0.973
16	440	73	0.973
16	441	74	3.4308954254439
16	481	75	4.2232285476502
16	482	76	6.7450196714206
16	483	77	7.8458739017235
16	484	78	10.59068089367
16	485	79	0.973
16	525	80	0.973
16	526	81	0.973
16	527	82	0.973
16	528	83	0.973
16	529	84	0.973
16	569	85	1.1102791599723
16	570	86	1.1100368276288
16	571	87	1.1100123384266
16	572	88	1.1100053086624
16	573	89	0.973
16	618	90	0.973
16	619	91	1.9129957768192
16	620	92	3.2444817307955
16	621	93	3.1232862367064
16	622	94	5.8984577559395
16	677	95	4.8310201026577
16	678	96	6.8683370736268
16	679	97	9.0236387885573
16	681	98	6.5886607932116
16	682	99	3.0885594065882
17	127	26	1.9570178572088
17	128	27	4.3890908997506
17	129	28	6.6925828613574
17	130	29	9.1958932703361
17	160	30	11.463777175057
17	161	31	13.270857597259
17	162	32	14.046775816741
17	163	33	12.364135161177
17	164	34	7.8641351611765
17	194	35	6.6270959169202
17	195	36	5.7549134053121
17	196	37	8.2073783979815
17	197	38	9.7000936505915
17	198	39	11.033265634516
17	228	40	12.450693785848
17	229	41	13.614649682386
17	230	42	11.476084515111
17	231	43	6.9760845151111
17	232	44	5.2151079954814
17	262	45	6.0479525411038
17	263	46	7.3622375732057
17	264	47	9.5663402024891
17	265	48	11.451932063187
17	266	49	13.179008490546
17	296	50	14.196123211911
17	297	51	14.015824649866
17	298	52	14.461528264975
17	299	53	13.317576537711
17	300	54	13.984194363571
17	330	55	13.372971970203
17	331	56	13.947354336792
17	332	57	13.936868538974
17	333	58	14.452148379323
17	334	59	9.9521483793231
17	364	60	6.1618314620109
17	365	61	5.8739481983941
17	366	62	7.9870460497916
17	367	63	9.5515401703308
17	368	64	10.9156115653
17	398	65	13.277146341326
17	399	66	12.004419016951
17	400	67	7.918208900021
17	401	68	4.1944467145352
17	402	69	0.87764130428379
17	437	70	0.34419523249461
17	438	71	0.022630417316565
17	439	72	0.0059854801862061
17	440	73	0.00048103367615285
17	441	74	0
17	481	75	0
17	482	76	0
17	483	77	0
17	484	78	0
17	485	79	0
17	525	80	0
17	526	81	0
17	527	82	0
17	528	83	0
17	529	84	0
17	569	85	0
17	570	86	0
17	571	87	0
17	572	88	0
17	573	89	0
17	618	90	0
17	619	91	2.0555858898908
17	620	92	4.2552704520291
17	621	93	5.9282258449355
17	622	94	7.974788010167
17	677	95	9.8638321045088
17	678	96	12.456465320103
17	679	97	14.032011568301
17	681	98	9.532011568301
17	682	99	5.032011568301
18	128	27	2.4320730425417
18	129	28	2.3034919616068
18	130	29	2.5033104089787
18	160	30	2.2678839047207
18	161	31	1.8070804222021
18	162	32	0.77591821948215
18	163	33	-1.6826406555645
18	164	34	-4.5
18	194	35	-1.2370392442563
18	195	36	-0.87218251160812
18	196	37	2.4524649926694
18	197	38	1.4927152526099
18	198	39	1.3331719839247
18	228	40	1.4174281513318
18	229	41	1.1639558965384
18	230	42	-2.1385651672753
18	231	43	-4.5
18	232	44	-1.7609765196297
18	262	45	0.83284454562236
18	263	46	1.3142850321019
18	264	47	2.2041026292834
18	265	48	1.8855918606976
18	266	49	1.7270764273591
18	296	50	1.0171147213656
18	297	51	-0.18029856204521
18	298	52	0.4457036151085
18	299	53	-1.1439517272636
18	300	54	0.66661782586016
18	330	55	-0.61122239336837
18	331	56	0.57438236658927
18	332	57	-0.01048579781782
18	333	58	0.5152798403487
18	334	59	-4.5
18	364	60	-3.7903169173122
18	365	61	-0.28788326361682
18	366	62	2.1130978513975
18	367	63	1.5644941205392
18	368	64	1.3640713949688
18	398	65	2.3615347760264
18	399	66	-1.2727273243746
18	400	67	-4.0862101169303
18	401	68	-3.7237621854858
18	402	69	-3.3168054102514
18	437	70	-0.53344607178919
18	438	71	-0.32156481517804
18	439	72	-0.016644937130359
18	440	73	-0.0055044465100533
18	441	74	-0.00048103367615285
18	481	75	0
18	482	76	0
18	483	77	0
18	484	78	0
18	485	79	0
18	525	80	0
18	526	81	0
18	527	82	0
18	528	83	0
18	529	84	0
18	569	85	0
18	570	86	0
18	571	87	0
18	572	88	0
18	573	89	0
18	618	90	0
18	619	91	2.0555858898908
18	620	92	2.1996845621383
18	621	93	1.6729553929064
18	622	94	2.0465621652314
18	677	95	1.8890440943418
18	678	96	2.5926332155941
18	679	97	1.5755462481981
18	681	98	-4.5
18	682	99	-4.5
19	128	27	3.9021166689188
19	129	28	5.1758730827717
19	130	29	7.1733101865236
19	160	30	8.0678281969871
19	161	31	7.7456378053235
19	162	32	4.6703483928676
19	163	33	0.973
19	164	34	0.973
19	194	35	0.973
19	195	36	0.973
19	196	37	6.4079185868121
19	197	38	5.151800805587
19	198	39	5.3112469077058
19	228	40	6.1420815857699
19	229	41	5.8189887270091
19	230	42	0.973
19	231	43	0.973
19	232	44	0.973
19	262	45	2.63610735397
19	263	46	3.8339532701081
19	264	47	6.7338866188767
19	265	48	7.0052579749499
19	266	49	7.4426501354086
19	296	50	5.5389314425623
19	297	51	1.4314566152092
19	298	52	3.6403958167759
19	299	53	0.973
19	300	54	4.2838569003909
19	330	55	0.973
19	331	56	3.9641376799903
19	332	57	1.9971688577147
19	333	58	3.8807242459694
19	334	59	0.973
19	364	60	0.973
19	365	61	0.973
19	366	62	5.6098194720144
19	367	63	5.2526079013217
19	368	64	5.3451285151608
19	398	65	9.5231258041226
19	399	66	0.973
19	400	67	0.973
19	401	68	0.973
19	402	69	0.973
19	437	70	0.973
19	438	71	0.973
19	439	72	1.1102647292501
19	440	73	1.1100225669389
19	441	74	0.973
19	481	75	0.973
19	482	76	0.973
19	483	77	0.973
19	484	78	0.973
19	485	79	0.973
19	525	80	0.973
19	526	81	0.973
19	527	82	0.973
19	528	83	0.973
19	529	84	0.973
19	569	85	0.973
19	570	86	0.973
19	571	87	0.973
19	572	88	0.973
19	573	89	0.973
19	618	90	0.973
19	619	91	2.2282932798931
19	620	92	3.5782130902965
19	621	93	3.805379332648
19	622	94	5.4748927489204
19	677	95	6.1650921041032
19	678	96	9.6725548030022
19	679	97	7.3701827397385
19	681	98	0.973
19	682	99	0.973
20	331	56	33.3
20	332	57	34.828189688758
20	333	58	37.835218543001
20	334	59	43.206492745061
20	364	60	51.087830447452
20	365	61	60.428643351886
20	366	62	71.664423038065
20	367	63	84.850786028849
20	368	64	98.517935416122
20	398	65	111.56962477185
20	399	66	125.15513938101
20	400	67	139.45662388206
20	401	68	153.45420195752
20	402	69	166.55955802617
20	437	70	179.97404869229
20	438	71	193.4618653271
20	439	72	206.5488584814
20	440	73	220.45936537404
20	441	74	234.15710061542
20	481	75	247.25003796858
20	482	76	261.28949553997
20	483	77	274.44192631125
20	484	78	288.67898220458
20	485	79	302.01847957167
20	525	80	310.92670223961
20	526	81	319.83940554818
20	527	82	325.95074120638
20	528	83	326.6
20	529	84	326.6
20	569	85	326.6
20	570	86	326.6
20	571	87	326.6
20	572	88	326.6
20	573	89	326.6
20	618	90	328.54344866682
20	619	91	335.72915512722
20	620	92	345.9190083039
20	621	93	358.41332068316
20	622	94	371.70551996534
20	677	95	385.59694978599
20	678	96	399.33311151026
20	679	97	412.36751546188
20	681	98	425.63310444473
20	682	99	438.68205937143
21	331	56	126.6
21	332	57	126.6
21	333	58	126.6
21	334	59	126.6
21	364	60	126.6
21	365	61	126.6
21	366	62	126.6
21	367	63	126.6
21	368	64	126.6
21	398	65	126.6
21	399	66	126.6
21	400	67	126.6
21	401	68	126.6
21	402	69	126.6
21	437	70	126.6
21	438	71	126.6
21	439	72	126.6
21	440	73	126.6
21	441	74	126.6
21	481	75	126.6
21	482	76	126.6
21	483	77	126.6
21	484	78	126.6
21	485	79	126.6
21	525	80	126.6
21	526	81	125.42841702011
21	527	82	120.43120668992
21	528	83	111.29410733399
21	529	84	100.48039492193
21	569	85	87.455072015911
21	570	86	73.175955829927
21	571	87	59.512829020153
21	572	88	46.030478004695
21	573	89	35.175919429888
21	618	90	28.694252221969
21	619	91	26.6
21	620	92	26.6
21	621	93	26.6
21	622	94	26.6
21	677	95	26.6
21	678	96	26.6
21	679	97	26.6
21	681	98	26.6
21	682	99	26.6
22	332	57	1.528189688758
22	333	58	3.0070288542425
22	334	59	5.3712742020609
22	364	60	7.8813377023907
22	365	61	9.3408129044343
22	366	62	11.235779686179
22	367	63	13.186362990784
22	368	64	13.667149387273
22	398	65	13.051689355723
22	399	66	13.585514609163
22	400	67	14.301484501055
22	401	68	13.997578075454
22	402	69	13.105356068649
22	437	70	13.41449066612
22	438	71	13.487816634817
22	439	72	13.086993154298
22	440	73	13.910506892643
22	441	74	13.697735241378
22	481	75	13.092937353156
22	482	76	14.039457571386
22	483	77	13.152430771287
22	484	78	14.237055893332
22	485	79	13.339497367085
22	525	80	8.9082226679448
22	526	81	9.04159047825
22	527	82	8.3511707000222
22	528	83	9.2164292481283
22	529	84	10.813712412051
22	569	85	13.025322906023
22	570	86	14.279116185984
22	571	87	13.663126809775
22	572	88	13.482351015458
22	573	89	10.854558574807
22	618	90	6.9160206018964
22	619	91	7.6890539552103
22	620	92	10.189853176686
22	621	93	12.494312379255
22	622	94	13.292199282181
22	677	95	13.891429820653
22	678	96	13.736161724265
22	679	97	13.034403951625
22	681	98	13.365588982842
22	682	99	13.048954926707
23	333	58	1.4788391654845
23	334	59	2.3642453478184
23	364	60	2.5100635003299
23	365	61	1.4594752020435
23	366	62	1.8949667817447
23	367	63	1.9505833046045
23	368	64	0.4807863964894
23	398	65	-0.61546003154945
23	399	66	0.53382525343914
23	400	67	0.71596989189275
23	401	68	-0.30390642560087
23	402	69	-0.89222200680524
23	437	70	0.30913459747098
23	438	71	0.073325968696736
23	439	72	-0.40082348051947
23	440	73	0.82351373834535
23	441	74	-0.21277165126521
23	481	75	-0.60479788822122
23	482	76	0.94652021822985
23	483	77	-0.88702680009883
23	484	78	1.0846251220442
23	485	79	-0.89755852624654
23	525	80	-4.4312746991403
23	526	81	0.13336781030521
23	527	82	-0.69041977822781
23	528	83	0.86525854810607
23	529	84	1.5972831639228
23	569	85	2.211610493972
23	570	86	1.2537932799605
23	571	87	-0.61598937620874
23	572	88	-0.18077579431701
23	573	89	-2.6277924406509
23	618	90	-3.9385379729104
23	619	91	0.7730333533138
23	620	92	2.5007992214756
23	621	93	2.304459202569
23	622	94	0.79788690292653
23	677	95	0.5992305384716
23	678	96	-0.15526809638832
23	679	97	-0.70175777263939
23	681	98	0.33118503121659
23	682	99	-0.31663405613508
24	333	58	2.3292766763502
24	334	59	4.4438871268835
24	364	60	6.3030407006077
24	365	61	4.9213660165796
24	366	62	6.9142819653787
24	367	63	8.1567057698801
24	368	64	3.5887434011244
24	398	65	0.973
24	399	66	3.7448005916596
24	400	67	4.5378259049916
24	401	68	0.973
24	402	69	0.973
24	437	70	2.9795089410405
24	438	71	2.2256748973572
24	439	72	0.973
24	440	73	4.7904742923143
24	441	74	1.3058076458024
24	481	75	0.973
24	482	76	5.2454603505468
24	483	77	0.973
24	484	78	5.7848693796227
24	485	79	0.973
24	525	80	0.973
24	526	81	1.9050600419788
24	527	82	0.973
24	528	83	3.5487981389628
24	529	84	5.9111552370122
24	569	85	8.8849590532322
24	570	86	6.3824151794725
24	571	87	0.973
24	572	88	1.3993999130382
24	573	89	0.973
24	618	90	0.973
24	619	91	2.9553931006352
24	620	92	7.8406486790954
24	621	93	8.831931539713
24	622	94	4.5241343605967
24	677	95	4.0338831597616
24	678	96	1.4980552697365
24	679	97	0.973
24	681	98	3.0421036193387
24	682	99	0.973
25	399	66	933
25	400	67	933
25	401	68	933
25	402	69	933
25	437	70	933
25	438	71	933
25	439	72	933
25	440	73	933
25	441	74	933
25	481	75	933
25	482	76	933
25	483	77	933
25	484	78	935.03734597702
25	485	79	941.15073549379
25	525	80	948.74216846405
25	526	81	957.88403456364
25	527	82	968.39805507632
25	528	83	981.33108173141
25	529	84	994.83030637105
25	569	85	1008.2515473817
25	570	86	1022.1034661077
25	571	87	1035.2227972815
25	572	88	1048.5688862027
25	573	89	1062.2688645231
25	618	90	1075.5653073221
25	619	91	1088.5522272502
25	620	92	1101.7652882899
25	621	93	1114.3841211384
25	622	94	1122.5029539869
25	677	95	1125.9340417118
25	678	96	1125.7875267184
25	679	97	1123.2976222179
25	681	98	1118.6448939682
25	682	99	1111.9768993106
26	399	66	120.97
26	400	67	119.53611274963
26	401	68	116.61984569733
26	402	69	112.29069371655
26	437	70	106.5890012621
26	438	71	99.452757984102
26	439	72	90.630187064507
26	440	73	79.730572119406
26	441	74	67.054681498818
26	481	75	54.129509930082
26	482	76	42.902504635021
26	483	77	35.282169021293
26	484	78	29.8
26	485	79	29.8
26	525	80	29.8
26	526	81	26.6
26	527	82	26.6
26	528	83	26.6
26	529	84	26.6
26	569	85	26.6
26	570	86	26.6
26	571	87	26.6
26	572	88	26.6
26	573	89	26.6
26	618	90	26.6
26	619	91	26.6
26	620	92	26.6
26	621	93	26.6
26	622	94	26.6
26	677	95	25.977305525485
26	678	96	23.925017812256
26	679	97	23.4
26	681	98	23.4
26	682	99	23.4
27	400	67	1.4338872503722
27	401	68	2.9162670522928
27	402	69	4.3291519807884
27	437	70	5.701692454447
27	438	71	7.1362432779977
27	439	72	8.8225709195947
27	440	73	10.899614945101
27	441	74	12.675890620588
27	481	75	12.925171568736
27	482	76	11.227005295061
27	483	77	7.6203356137279
27	484	78	3.6995149983173
27	485	79	6.1133895167695
27	525	80	7.591432970258
27	526	81	9.1418660995863
27	527	82	10.51402051268
27	528	83	12.933026655096
27	529	84	13.49922463964
27	569	85	13.421241010611
27	570	86	13.851918725998
27	571	87	13.11933117381
27	572	88	13.346088921188
27	573	89	13.699978320489
27	618	90	13.29644279897
27	619	91	12.986919928042
27	620	92	13.213061039711
27	621	93	12.618832848534
27	622	94	8.1188328485342
27	677	95	3.6188328485342
27	678	96	2.6023912658554
27	679	97	2.6481996807607
27	681	98	4.6527282497019
27	682	99	6.6679946576582
28	401	68	1.4823798019206
28	402	69	1.4128849284956
28	437	70	1.3725404736586
28	438	71	1.4345508235507
28	439	72	1.686327641597
28	440	73	2.0770440255059
28	441	74	1.7762756754877
28	481	75	0.24928094814748
28	482	76	-1.6981662736749
28	483	77	-3.606669681333
28	484	78	-3.9208206154106
28	485	79	2.4138745184522
28	525	80	1.4780434534885
28	526	81	1.5504331293283
28	527	82	1.3721544130938
28	528	83	2.419006142416
28	529	84	0.56619798454343
28	569	85	-0.077983629028312
28	570	86	0.43067771538626
28	571	87	-0.73258755218703
28	572	88	0.22675774737727
28	573	89	0.35388939930126
28	618	90	-0.40353552151937
28	619	91	-0.30952287092805
28	620	92	0.22614111166913
28	621	93	-0.59422819117655
28	622	94	-4.5
28	677	95	-4.5
28	678	96	-1.0164415826788
28	679	97	0.045808414905332
28	681	98	2.0045285689412
28	682	99	2.0152664079564
29	401	68	2.2948185835599
29	402	69	2.800432510846
29	437	70	3.2881914921601
29	438	71	3.9550149021587
29	439	72	5.1845766857044
29	440	73	7.2114122800275
29	441	74	7.3359628194389
29	481	75	2.7094839035249
29	482	76	0.973
29	483	77	0.973
29	484	78	0.973
29	485	79	4.9824427376448
29	525	80	4.2207585970949
29	526	81	5.0374812541836
29	527	82	5.2014385845665
29	528	83	9.4734270591024
29	529	84	3.8304694656369
29	569	85	1.7285330082262
29	570	86	3.4614821539776
29	571	87	0.973
29	572	88	2.7027618461364
29	573	89	3.1768593174153
29	618	90	0.973
29	619	91	0.973
29	620	92	2.6806097831516
29	621	93	0.973
29	622	94	0.973
29	677	95	0.973
29	678	96	0.973
29	679	97	1.268700456492
29	681	98	3.5914451036465
29	682	99	4.697558282378
30	440	73	33.3
30	441	74	35.456797394785
30	481	75	40.030639050878
30	482	76	46.571378405741
30	483	77	54.566757016024
30	484	78	64.573242078861
30	485	79	76.222260548617
30	525	80	87.3417339599
30	526	81	98.740547191306
30	527	82	110.20058867182
30	528	83	122.36072738555
30	529	84	134.26081391855
30	569	85	146.49115957031
30	570	86	157.51547291896
30	571	87	168.84594551775
30	572	88	180.98072870402
30	573	89	192.32187620711
30	618	90	203.58325218014
30	619	91	215.79793315696
30	620	92	226.9922822574
30	621	93	238.65298711816
30	622	94	249.79810314812
30	677	95	261.58700586628
30	678	96	273.41353860316
30	679	97	284.90106482213
30	681	98	296.95628803126
30	682	99	304.98555134266
31	440	73	126.6
31	441	74	126.6
31	481	75	126.6
31	482	76	126.6
31	483	77	126.6
31	484	78	126.6
31	485	79	126.6
31	525	80	126.6
31	526	81	126.6
31	527	82	126.6
31	528	83	126.6
31	529	84	126.6
31	569	85	126.6
31	570	86	126.6
31	571	87	126.6
31	572	88	126.6
31	573	89	126.6
31	618	90	126.6
31	619	91	126.6
31	620	92	126.6
31	621	93	126.6
31	622	94	126.6
31	677	95	126.6
31	678	96	126.6
31	679	97	126.6
31	681	98	126.6
31	682	99	126.6
32	441	74	2.1567973947851
32	481	75	4.5738416560926
32	482	76	6.5407393548638
32	483	77	7.9953786102822
32	484	78	10.006485062838
32	485	79	11.649018469756
32	525	80	11.119473411283
32	526	81	11.398813231406
32	527	82	11.460041480512
32	528	83	12.160138713732
32	529	84	11.900086532999
32	569	85	12.230345651764
32	570	86	11.024313348648
32	571	87	11.330472598784
32	572	88	12.134783186275
32	573	89	11.341147503094
32	618	90	11.261375973025
32	619	91	12.214680976817
32	620	92	11.194349100441
32	621	93	11.660704860767
32	622	94	11.14511602996
32	677	95	11.788902718155
32	678	96	11.826532736887
32	679	97	11.487526218966
32	681	98	12.055223209132
32	682	99	8.0292633114004
33	481	75	2.4170442613075
33	482	76	1.9668976987712
33	483	77	1.4546392554184
33	484	78	2.0111064525554
33	485	79	1.6425334069183
33	525	80	-0.52954505847301
33	526	81	0.27933982012328
33	527	82	0.061228249105625
33	528	83	0.70009723322
33	529	84	-0.2600521807326
33	569	85	0.33025911876466
33	570	86	-1.2060323031154
33	571	87	0.30615925013553
33	572	88	0.80431058749091
33	573	89	-0.79363568318077
33	618	90	-0.07977153006941
33	619	91	0.95330500379205
33	620	92	-1.0203318763757
33	621	93	0.46635576032568
33	622	94	-0.51558883080725
33	677	95	0.64378668819554
33	678	96	0.03763001873158
33	679	97	-0.33900651792064
33	681	98	0.56769699016586
33	682	99	-4.0259598977315
34	481	75	4.0037792169609
34	482	76	4.5518314401124
34	483	77	4.3458375024674
34	484	78	6.5351812700842
34	485	79	6.4292485638756
34	525	80	0.973
34	526	81	2.5640777141421
34	527	82	1.9709741446411
34	528	83	3.9144125755895
34	529	84	0.973
34	569	85	2.8424358688084
34	570	86	0.973
34	571	87	2.6269683567079
34	572	88	4.2126446078107
34	573	89	0.973
34	618	90	1.5686805782306
34	619	91	4.6738687949753
34	620	92	0.973
34	621	93	3.1295487582496
34	622	94	0.973
34	677	95	3.6591291100126
34	678	96	1.9405724260401
34	679	97	0.973
34	681	98	3.5027237171487
34	682	99	0.973
35	569	85	1119.9
35	570	86	1117.4429246062
35	571	87	1113.5173636018
35	572	88	1107.9680033396
35	573	89	1100.0591949824
35	618	90	1090.3472299168
35	619	91	1078.0608247046
35	620	92	1064.2800200141
35	621	93	1048.3578514938
35	622	94	1033.5206969819
35	677	95	1018.4559981241
35	678	96	1002.9563842214
35	679	97	987.34363601171
35	681	98	971.6184877981
35	682	99	956.09516934604
36	569	85	17
36	570	86	17
36	571	87	17
36	572	88	17
36	573	89	17
36	618	90	17
36	619	91	17
36	620	92	20.2
36	621	93	20.2
36	622	94	20.2
36	677	95	20.2
36	678	96	20.2
36	679	97	20.2
36	681	98	20.2
36	682	99	20.2
37	570	86	2.457075393782
37	571	87	3.9255610043881
37	572	88	5.5493602622766
37	573	89	7.9088083571522
37	618	90	9.7119650655659
37	619	91	12.286405212269
37	620	92	13.780804690509
37	621	93	15.922168520282
37	622	94	14.837154511854
37	677	95	15.06469885784
37	678	96	15.499613902674
37	679	97	15.612748209692
37	681	98	15.725148213611
37	682	99	15.523318452065
38	571	87	1.4684856106061
38	572	88	1.6237992578885
38	573	89	2.3594480948756
38	618	90	1.8031567084137
38	619	91	2.5744401467033
38	620	92	1.4943994782399
38	621	93	2.1413638297729
38	622	94	-1.085014008428
38	677	95	0.2275443459861
38	678	96	0.43491504483391
38	679	97	0.11313430701848
38	681	98	0.11240000391845
38	682	99	-0.2018297615461
39	571	87	2.6942331328243
39	572	88	3.5651505512933
39	573	89	6.0343817233576
39	618	90	5.8835682731409
39	619	91	9.4970097999592
39	620	92	6.9797132753008
39	621	93	10.467906749437
39	622	94	0.973
39	677	95	2.9786723433361
39	678	96	3.8262677512721
39	679	97	2.640415449737
39	681	98	2.6537673137569
39	682	99	1.4493379053488
40	622	94	933
40	677	95	933
40	678	96	933
40	679	97	933
40	681	98	933
40	682	99	933
41	622	94	120.97
41	677	95	118.5786102203
41	678	96	114.09082469354
41	679	97	107.18158618054
41	681	98	98.009025781164
41	682	99	87.31412523543
42	677	95	2.3913897797
42	678	96	4.4877855267609
42	679	97	6.9092385130003
42	681	98	9.1725603993749
42	682	99	10.694900545734
43	678	96	2.0963957470609
43	679	97	2.4214529862395
43	681	98	2.2633218863746
43	682	99	1.5223401463591
44	678	96	3.6022104898904
44	679	97	5.5057965113897
44	681	98	6.6270469764654
44	682	99	5.6627160045905
0	737	100	1050.13
0	738	101	1064.02
0	739	102	1077.91
0	740	103	1091.8
0	741	104	1105.69
0	796	105	1119.58
0	797	106	1133.47
0	798	107	1147.36
0	799	108	1161.25
0	800	109	1175.14
1	737	100	326.6
1	738	101	326.6
1	739	102	326.6
1	740	103	326.6
1	741	104	326.6
1	796	105	326.6
1	797	106	326.6
1	798	107	326.6
1	799	108	326.6
1	800	109	326.6
2	737	100	537.11
2	738	101	523.22
2	739	102	509.33
2	740	103	495.44
2	741	104	481.55
2	796	105	467.66
2	797	106	453.77
2	798	107	439.88
2	799	108	425.99
2	800	109	412.2
3	737	100	323.4
3	738	101	323.4
3	739	102	323.4
3	740	103	323.4
3	741	104	323.4
3	796	105	323.4
3	797	106	323.4
3	798	107	323.4
3	799	108	323.4
3	800	109	323.4
4	737	100	13.89
4	738	101	13.89
4	739	102	13.89
4	740	103	13.89
4	741	104	13.89
4	796	105	13.89
4	797	106	13.89
4	798	107	13.89
4	799	108	13.89
4	800	109	13.89
5	737	100	13.89
5	738	101	13.89
5	739	102	13.89
5	740	103	13.89
5	741	104	13.89
5	796	105	13.89
5	797	106	13.89
5	798	107	13.89
5	799	108	13.89
5	800	109	13.89
6	737	100	0
6	738	101	0
6	739	102	0
6	740	103	0
6	741	104	0
6	796	105	0
6	797	106	0
6	798	107	0
6	799	108	0
6	800	109	0
7	737	100	2.0276130047521
7	738	101	2.0276130047521
7	739	102	2.0276130047521
7	740	103	2.0276130047521
7	741	104	2.0276130047521
7	796	105	2.0276130047521
7	797	106	2.0276130047521
7	798	107	2.0276130047521
7	799	108	2.0276130047521
7	800	109	2.0276130047521
8	737	100	0
8	738	101	0
8	739	102	0
8	740	103	0
8	741	104	0
8	796	105	0
8	797	106	0
8	798	107	0
8	799	108	0
8	800	109	0
9	737	100	2.0276130047521
9	738	101	2.0276130047521
9	739	102	2.0276130047521
9	740	103	2.0276130047521
9	741	104	2.0276130047521
9	796	105	2.0276130047521
9	797	106	2.0276130047521
9	798	107	2.0276130047521
9	799	108	2.0276130047521
9	800	109	2.0276130047521
10	737	100	720.16912780569
10	738	101	735.54550099647
10	739	102	749.91928578307
10	740	103	765.2837524441
10	741	104	780.5449701106
10	796	105	795.75653955762
10	797	106	809.65400288912
10	798	107	819.05146622061
10	799	108	824.35495021765
10	800	109	826.58425888976
11	737	100	126.6
11	738	101	126.6
11	739	102	126.6
11	740	103	126.6
11	741	104	126.6
11	796	105	126.6
11	797	106	126.6
11	798	107	126.6
11	799	108	126.6
11	800	109	124.96851777953
12	737	100	14.479528512826
12	738	101	15.376373190779
12	739	102	14.373784786599
12	740	103	15.364466661025
12	741	104	15.261217666507
12	796	105	15.21156944702
12	797	106	13.897463331494
12	798	107	9.3974633314938
12	799	108	5.303483997035
12	800	109	3.0152231546658
13	737	100	926.6
13	738	101	926.6
13	739	102	926.6
13	740	103	926.6
13	741	104	926.6
13	796	105	926.6
13	797	106	926.6
13	798	107	929.8
13	799	108	929.8
13	800	109	929.8
14	737	100	72.45881141604
14	738	101	72.45881141604
14	739	102	72.45881141604
14	740	103	72.45881141604
14	741	104	72.45881141604
14	796	105	72.45881141604
14	797	106	72.45881141604
14	798	107	72.45881141604
14	799	108	72.45881141604
14	800	109	72.45881141604
15	737	100	-0.29884524068329
15	738	101	0.89684467795305
15	739	102	-1.0025884041796
15	740	103	0.99068187442608
15	741	104	-0.10324899451807
15	796	105	-0.049648219486699
15	797	106	-1.3141061155267
15	798	107	-4.5
15	799	108	-4.0939793344587
15	800	109	-2.2882608423692
16	737	100	1.0460895674043
16	738	101	5.5110404419975
16	739	102	0.973
16	740	103	5.8545768297597
16	741	104	1.7948085872641
16	796	105	1.9869545629537
16	797	106	0.973
16	798	107	0.973
16	799	108	0.973
16	800	109	0.973
17	737	100	0.53201156830097
17	738	101	0
17	739	102	0
17	740	103	0
17	741	104	0
17	796	105	0
17	797	106	0
17	798	107	0
17	799	108	0
17	800	109	0
18	737	100	-4.5
18	738	101	-0.53201156830097
18	739	102	0
18	740	103	0
18	741	104	0
18	796	105	0
18	797	106	0
18	798	107	0
18	799	108	0
18	800	109	0
19	737	100	0.973
19	738	101	0.973
19	739	102	0.973
19	740	103	0.973
19	741	104	0.973
19	796	105	0.973
19	797	106	0.973
19	798	107	0.973
19	799	108	0.973
19	800	109	0.973
20	737	100	451.8173451969
20	738	101	465.41203698425
20	739	102	479.49362677834
20	740	103	492.53523083494
20	741	104	505.72901732317
20	796	105	516.68524786875
20	797	106	524.15284227266
20	798	107	526.50397665323
20	799	108	524.71996881643
20	800	109	519.85716768285
21	737	100	26.6
21	738	101	26.6
21	739	102	26.6
21	740	103	26.6
21	741	104	26.6
21	796	105	26.6
21	797	106	26.6
21	798	107	25.192046693547
21	799	108	23.4
21	800	109	23.4
22	737	100	13.135285825465
22	738	101	13.594691787354
22	739	102	14.081589794085
22	740	103	13.041604056601
22	741	104	13.193786488237
22	796	105	10.956230545574
22	797	106	7.467594403912
22	798	107	2.967594403912
22	799	108	2.8295945069973
22	800	109	4.8628011335839
23	737	100	0.086330898758025
23	738	101	0.45940596188884
23	739	102	0.48689800673164
23	740	103	-1.0399857374839
23	741	104	0.15218243163545
23	796	105	-2.2375559426632
23	797	106	-3.4886361416616
23	798	107	-4.5
23	799	108	-0.1379998969147
23	800	109	2.0332066265866
24	737	100	2.2262944430448
24	738	101	3.503072223456
24	739	102	3.6996090934918
24	740	103	0.973
24	741	104	2.442531694407
24	796	105	0.973
24	797	106	0.973
24	798	107	0.973
24	799	108	0.973
24	800	109	3.7379903174828
25	737	100	1103.109759139
25	738	101	1092.5220994266
25	739	102	1079.6353728705
25	740	103	1065.8527595216
25	741	104	1052.2894792742
25	796	105	1039.1634966795
25	797	106	1025.0783912068
25	798	107	1011.9477154084
25	799	108	998.68817775713
25	800	109	985.68906746313
26	737	100	23.4
26	738	101	23.4
26	739	102	23.4
26	740	103	20.2
26	741	104	20.2
26	796	105	20.2
26	797	106	20.2
26	798	107	20.2
26	799	108	20.2
26	800	109	20.2
27	737	100	8.8671401715243
27	738	101	10.587659712472
27	739	102	12.886726556007
27	740	103	13.782613348916
27	741	104	13.563280247433
27	796	105	13.125982594702
27	797	106	14.085105472712
27	798	107	13.130675798424
27	799	108	13.259537651229
27	800	109	12.999110293996
28	737	100	2.1991455138661
28	738	101	1.7205195409479
28	739	102	2.2990668435348
28	740	103	0.89588679290948
28	741	104	-0.21933310148306
28	796	105	-0.43729765273165
28	797	106	0.95912287801039
28	798	107	-0.95442967428826
28	799	108	0.12886185280513
28	800	109	-0.26042735723313
29	737	100	6.3016881082804
29	738	101	6.1205119889384
29	739	102	9.0695673203966
29	740	103	4.9925215068771
29	741	104	1.2778453057915
29	796	105	0.973
29	797	106	5.3033567216557
29	798	107	0.973
29	799	108	2.3767808322445
29	800	109	1.1241287428422
30	737	100	309.02790286608
30	738	101	310.26738335475
30	739	102	310.39379484589
30	740	103	310.39762526955
30	741	104	310.39850398874
30	796	105	310.39892772047
30	797	106	310.39892772047
30	798	107	310.39892772047
30	799	108	310.39892772047
30	800	109	310.39892772047
31	737	100	126.6
31	738	101	126.6
31	739	102	126.6
31	740	103	126.6
31	741	104	126.6
31	796	105	126.6
31	797	106	126.6
31	798	107	126.6
31	799	108	126.6
31	800	109	126.6
32	737	100	4.0423515234186
32	738	101	1.2394804886731
32	739	102	0.12641149113899
32	740	103	0.0038304236597522
32	741	104	0.00087871918444428
32	796	105	0.00042373173232209
32	797	106	0
32	798	107	0
32	799	108	0
32	800	109	0
33	737	100	-3.9869117879818
33	738	101	-2.8028710347455
33	739	102	-1.1130689975341
33	740	103	-0.12258106747924
33	741	104	-0.0029517044753079
33	796	105	-0.0004549874521222
33	797	106	-0.00042373173232209
33	798	107	0
33	799	108	0
33	800	109	0
34	737	100	0.973
34	738	101	0.973
34	739	102	0.973
34	740	103	0.973
34	741	104	1.1100417643272
34	796	105	1.1100203943558
34	797	106	0.973
34	798	107	0.973
34	799	108	0.973
34	800	109	0.973
35	737	100	940.28796363922
35	738	101	929.03636321814
35	739	102	921.44046705942
35	740	103	917
35	741	104	917
35	796	105	917
35	797	106	917
35	798	107	917
35	799	108	917
35	800	109	916.64205594932
36	737	100	20.2
36	738	101	20.994805254551
36	739	102	27.73255490097
36	740	103	39.000064450572
36	741	104	52.906139530011
36	796	105	68.488121160916
36	797	106	83.344345791901
36	798	107	98.763593605962
36	799	108	114.28294085801
36	800	109	128.31082782413
37	737	100	15.807205706814
37	738	101	11.307205706814
37	739	102	10.576147704666
37	740	103	11.424674678316
37	741	104	13.906075079438
37	796	105	15.581981630905
37	797	106	14.856224630985
37	798	107	15.419247814061
37	799	108	15.519347252048
37	800	109	14.056546324078
38	737	100	0.28388725474942
38	738	101	-4.5
38	739	102	-0.73105800214784
38	740	103	0.84852697364986
38	741	104	2.4814004011219
38	796	105	1.6759065514673
38	797	106	-0.72575699992012
38	798	107	0.56302318307571
38	799	108	0.1000994379865
38	800	109	-1.4628009279691
39	737	100	3.3188883582944
39	738	101	0.973
39	739	102	0.973
39	740	103	4.1351691625041
39	741	104	10.34532518046
39	796	105	8.5046303937735
39	797	106	0.973
39	798	107	4.2846991810661
39	799	108	2.5783386850485
39	800	109	0.973
40	737	100	933
40	738	101	933
40	739	102	933
40	740	103	933
40	741	104	933
40	796	105	934.30233146492
40	797	106	937.85964441766
40	798	107	943.77740854033
40	799	108	951.95827604904
40	800	109	961.77002506133
41	737	100	74.279431544309
41	738	101	62.193491626749
41	739	102	49.427052538049
41	740	103	40.812634880304
41	741	104	35.169964399026
41	796	105	33.04252407644
41	797	106	29.8
41	798	107	29.8
41	799	108	26.6
41	800	109	26.6
42	737	100	13.034693691121
42	738	101	12.08593991756
42	739	102	12.7664390887
42	740	103	8.6144176577443
42	741	104	5.6426704812787
42	796	105	2.8493208415611
42	797	106	3.5602879751279
42	798	107	5.9177641226715
42	799	108	8.1808675087095
42	800	109	9.8117490122831
43	737	100	2.339793145387
43	738	101	-0.94875377356075
43	739	102	0.68049917113967
43	740	103	-4.1520214309557
43	741	104	-2.9717471764656
43	796	105	-2.7933496397176
43	797	106	0.71096713356674
43	798	107	2.3574761475436
43	799	108	2.263103386038
43	800	109	1.6308815035736
44	737	100	9.2935146354015
44	738	101	0.973
44	739	102	4.0117655412108
44	740	103	0.973
44	741	104	0.973
44	796	105	0.973
44	797	106	1.8959479597084
44	798	107	4.7768055641123
44	799	108	6.0171340098101
44	800	109	5.5270119199517
vector 45 cegNetwork.node[9].veinsmobility posx ETV
vector 46 cegNetwork.node[9].veinsmobility posy ETV
vector 47 cegNetwork.node[9].veinsmobility speed ETV
vector 48 cegNetwork.node[10].veinsmobility posx ETV
vector 49 cegNetwork.node[10].veinsmobility posy ETV
vector 50 cegNetwork.node[9].veinsmobility acceleration ETV
vector 51 cegNetwork.node[9].veinsmobility co2emission ETV
vector 52 cegNetwork.node[10].veinsmobility speed ETV
vector 53 cegNetwork.node[11].veinsmobility posx ETV
vector 54 cegNetwork.node[11].veinsmobility posy ETV
vector 55 cegNetwork.node[10].veinsmobility acceleration ETV
vector 56 cegNetwork.node[10].veinsmobility co2emission ETV
vector 57 cegNetwork.node[11].veinsmobility speed ETV
vector 58 cegNetwork.node[11].veinsmobility acceleration ETV
vector 59 cegNetwork.node[11].veinsmobility co2emission ETV
vector 60 cegNetwork.node[12].veinsmobility posx ETV
vector 61 cegNetwork.node[12].veinsmobility posy ETV
7	855	110	2.0276130047521
7	856	111	2.0276130047521
7	857	112	2.0276130047521
7	858	113	2.0276130047521
7	859	114	2.0276130047521
7	914	115	2.0276130047521
7	915	116	1.7305214945342
7	916	117	0.973
7	917	118	0.973
7	918	119	0.973
7	973	120	0.973
7	974	121	0.973
7	975	122	0.973
7	976	123	1.4781303371764
7	977	124	1.4781303371764
7	1032	125	1.4781303371764
7	1033	126	1.4781303371764
7	1034	127	1.4781303371764
7	1035	128	1.4781303371764
7	1036	129	1.4781303371764
7	1091	130	1.4781303371764
7	1092	131	1.4781303371764
7	1093	132	1.4781303371764
7	1094	133	1.4781303371764
7	1095	134	1.4781303371764
7	1155	135	1.4781303371764
7	1156	136	1.4781303371764
7	1157	137	1.4781303371764
7	1158	138	1.4781303371764
7	1159	139	1.4781303371764
7	1224	140	1.4781303371764
7	1225	141	1.4781303371764
7	1226	142	1.4781303371764
7	1227	143	1.4781303371764
7	1228	144	1.4781303371764
7	1288	145	1.4781303371764
7	1289	146	1.4781303371764
7	1290	147	1.4781303371764
7	1292	148	1.4781303371764
7	1293	149	1.4781303371764
6	855	110	0
6	856	111	0
6	857	112	0
6	858	113	0
6	859	114	0
6	914	115	0
6	915	116	-0.086666666666584
6	916	117	-1.3
6	917	118	-1.3
6	918	119	-1.3
6	973	120	-1.3
6	974	121	-1.3
6	975	122	-0.32333333333341
6	976	123	0
6	977	124	0
6	1032	125	0
6	1033	126	0
6	1034	127	0
6	1035	128	0
6	1036	129	0
6	1091	130	0
6	1092	131	0
6	1093	132	0
6	1094	133	0
6	1095	134	0
6	1155	135	0
6	1156	136	0
6	1157	137	0
6	1158	138	0
6	1159	139	0
6	1224	140	0
6	1225	141	0
6	1226	142	0
6	1227	143	0
6	1228	144	0
6	1288	145	0
6	1289	146	0
6	1290	147	0
6	1292	148	0
6	1293	149	0
4	855	110	13.89
4	856	111	13.89
4	857	112	13.89
4	858	113	13.89
4	859	114	13.89
4	914	115	13.89
4	915	116	13.803333333333
4	916	117	12.503333333333
4	917	118	11.203333333333
4	918	119	9.9033333333334
4	973	120	8.6033333333334
4	974	121	7.3033333333334
4	975	122	6.98
4	976	123	6.98
4	977	124	6.98
4	1032	125	6.98
4	1033	126	6.98
4	1034	127	6.98
4	1035	128	6.98
4	1036	129	6.98
4	1091	130	6.98
4	1092	131	6.98
4	1093	132	6.98
4	1094	133	6.98
4	1095	134	6.98
4	1155	135	6.98
4	1156	136	6.98
4	1157	137	6.98
4	1158	138	6.98
4	1159	139	6.98
4	1224	140	6.98
4	1225	141	6.98
4	1226	142	6.98
4	1227	143	6.98
4	1228	144	6.98
4	1288	145	6.98
4	1289	146	6.98
4	1290	147	6.98
4	1292	148	6.98
4	1293	149	6.98
1	855	110	326.6
1	856	111	326.6
1	857	112	326.6
1	858	113	326.6
1	859	114	326.6
1	914	115	326.6
1	915	116	326.6
1	916	117	326.6
1	917	118	326.6
1	918	119	326.6
1	973	120	326.6
1	974	121	326.6
1	975	122	322.55247940974
1	976	123	315.58
1	977	124	308.6
1	1032	125	301.62
1	1033	126	294.64
1	1034	127	287.66
1	1035	128	280.68
1	1036	129	273.7
1	1091	130	266.72
1	1092	131	259.74
1	1093	132	252.76
1	1094	133	245.78
1	1095	134	238.8
1	1155	135	231.82
1	1156	136	224.84
1	1157	137	217.86
1	1158	138	210.88
1	1159	139	203.9
1	1224	140	196.92
1	1225	141	189.94
1	1226	142	182.96
1	1227	143	175.98
1	1228	144	169
1	1288	145	162.02
1	1289	146	155.04
1	1290	147	148.06
1	1292	148	141.08
1	1293	149	134.1
0	855	110	1189.03
0	856	111	1202.92
0	857	112	1216.81
0	858	113	1230.7
0	859	114	1244.59
0	914	115	1258.48
0	915	116	1272.2833333333
0	916	117	1284.7866666667
0	917	118	1295.99
0	918	119	1305.8933333333
0	973	120	1314.4966666667
0	974	121	1321.8
0	975	122	1326.4925029415
0	976	123	1326.6
0	977	124	1326.6
0	1032	125	1326.6
0	1033	126	1326.6
0	1034	127	1326.6
0	1035	128	1326.6
0	1036	129	1326.6
0	1091	130	1326.6
0	1092	131	1326.6
0	1093	132	1326.6
0	1094	133	1326.6
0	1095	134	1326.6
0	1155	135	1326.6
0	1156	136	1326.6
0	1157	137	1326.6
0	1158	138	1326.6
0	1159	139	1326.6
0	1224	140	1326.6
0	1225	141	1326.6
0	1226	142	1326.6
0	1227	143	1326.6
0	1228	144	1326.6
0	1288	145	1326.6
0	1289	146	1326.6
0	1290	147	1326.6
0	1292	148	1326.6
0	1293	149	1326.6
vector 62 cegNetwork.node[13].veinsmobility posx ETV
vector 63 cegNetwork.node[13].veinsmobility posy ETV
vector 64 cegNetwork.node[12].veinsmobility speed ETV
vector 65 cegNetwork.node[12].veinsmobility acceleration ETV
vector 66 cegNetwork.node[12].veinsmobility co2emission ETV
vector 67 cegNetwork.node[13].veinsmobility speed ETV
vector 68 cegNetwork.node[13].veinsmobility acceleration ETV
vector 69 cegNetwork.node[13].veinsmobility co2emission ETV
vector 70 cegNetwork.node[14].veinsmobility posx ETV
vector 71 cegNetwork.node[14].veinsmobility posy ETV
vector 72 cegNetwork.node[14].veinsmobility speed ETV
vector 73 cegNetwork.node[14].veinsmobility acceleration ETV
vector 74 cegNetwork.node[14].veinsmobility co2emission ETV
vector 75 cegNetwork.node[15].veinsmobility posx ETV
vector 76 cegNetwork.node[15].veinsmobility posy ETV
vector 77 cegNetwork.node[15].veinsmobility speed ETV
vector 78 cegNetwork.node[15].veinsmobility acceleration ETV
vector 79 cegNetwork.node[15].veinsmobility co2emission ETV
vector 80 cegNetwork.node[16].veinsmobility posx ETV
vector 81 cegNetwork.node[16].veinsmobility posy ETV
vector 82 cegNetwork.node[16].veinsmobility speed ETV
vector 83 cegNetwork.node[16].veinsmobility acceleration ETV
vector 84 cegNetwork.node[16].veinsmobility co2emission ETV
9	855	110	2.0276130047521
9	856	111	2.0276130047521
9	857	112	2.0276130047521
9	858	113	2.0276130047521
9	859	114	2.0276130047521
9	914	115	2.0276130047521
9	915	116	2.0276130047521
9	916	117	2.0276130047521
9	917	118	2.0276130047521
9	918	119	2.0276130047521
9	973	120	2.0276130047521
9	974	121	2.0276130047521
9	975	122	2.0276130047521
9	976	123	2.0276130047521
9	977	124	2.0276130047521
9	1032	125	2.0276130047521
9	1033	126	2.0276130047521
9	1034	127	2.0276130047521
9	1035	128	2.0276130047521
9	1036	129	2.0276130047521
9	1091	130	2.0276130047521
9	1092	131	2.0276130047521
9	1093	132	2.0276130047521
9	1094	133	0.973
9	1095	134	0.973
9	1155	135	0.973
9	1156	136	0.973
9	1157	137	0.973
9	1158	138	0.973
9	1159	139	0.973
9	1224	140	0.973
9	1225	141	1.3290535822284
9	1226	142	1.3290535822284
9	1227	143	1.3290535822284
9	1228	144	1.3290535822284
9	1288	145	1.3290535822284
9	1289	146	1.3290535822284
9	1290	147	1.3290535822284
9	1292	148	1.3290535822284
9	1293	149	1.3290535822284
9	1363	150	1.3290535822284
9	1364	151	1.3290535822284
9	1365	152	1.3290535822284
9	1366	153	1.3290535822284
9	1367	154	1.3290535822284
9	1437	155	1.3290535822284
9	1438	156	1.3290535822284
9	1439	157	1.3290535822284
9	1440	158	1.3290535822284
9	1441	159	1.3290535822284
9	1511	160	1.3290535822284
9	1512	161	1.3290535822284
9	1513	162	1.3290535822284
9	1514	163	1.3290535822284
9	1515	164	1.3290535822284
9	1585	165	1.3290535822284
9	1586	166	1.3290535822284
9	1587	167	1.3290535822284
9	1588	168	1.3290535822284
9	1589	169	1.3290535822284
9	1659	170	1.3290535822284
9	1660	171	1.3290535822284
9	1661	172	1.3290535822284
9	1662	173	1.3290535822284
9	1663	174	1.3290535822284
9	1738	175	1.3290535822284
9	1739	176	1.3290535822284
9	1740	177	1.3290535822284
9	1741	178	1.3290535822284
9	1742	179	1.3290535822284
9	1822	180	1.3290535822284
9	1823	181	1.3290535822284
9	1824	182	1.3290535822284
9	1825	183	1.3290535822284
8	855	110	0
8	856	111	0
8	857	112	0
8	858	113	0
8	859	114	0
8	914	115	0
8	915	116	0
8	916	117	0
8	917	118	0
8	918	119	0
8	973	120	0
8	974	121	0
8	975	122	0
8	976	123	0
8	977	124	0
8	1032	125	0
8	1033	126	0
8	1034	127	0
8	1035	128	0
8	1036	129	0
8	1091	130	0
8	1092	131	0
8	1093	132	0
8	1094	133	-0.77142857142847
8	1095	134	-1.3
8	1155	135	-1.3
8	1156	136	-1.3
8	1157	137	-1.3
8	1158	138	-1.3
8	1159	139	-1.3
8	1224	140	-0.93857142857153
8	1225	141	0
8	1226	142	0
8	1227	143	0
8	1228	144	0
8	1288	145	0
8	1289	146	0
8	1290	147	0
8	1292	148	0
8	1293	149	0
8	1363	150	0
8	1364	151	0
8	1365	152	0
8	1366	153	0
8	1367	154	0
8	1437	155	0
8	1438	156	0
8	1439	157	0
8	1440	158	0
8	1441	159	0
8	1511	160	0
8	1512	161	0
8	1513	162	0
8	1514	163	0
8	1515	164	0
8	1585	165	0
8	1586	166	0
8	1587	167	0
8	1588	168	0
8	1589	169	0
8	1659	170	0
8	1660	171	0
8	1661	172	0
8	1662	173	0
8	1663	174	0
8	1738	175	0
8	1739	176	0
8	1740	177	0
8	1741	178	0
8	1742	179	0
8	1822	180	0
8	1823	181	0
8	1824	182	0
8	1825	183	0
5	855	110	13.89
5	856	111	13.89
5	857	112	13.89
5	858	113	13.89
5	859	114	13.89
5	914	115	13.89
5	915	116	13.89
5	916	117	13.89
5	917	118	13.89
5	918	119	13.89
5	973	120	13.89
5	974	121	13.89
5	975	122	13.89
5	976	123	13.89
5	977	124	13.89
5	1032	125	13.89
5	1033	126	13.89
5	1034	127	13.89
5	1035	128	13.89
5	1036	129	13.89
5	1091	130	13.89
5	1092	131	13.89
5	1093	132	13.89
5	1094	133	13.118571428572
5	1095	134	11.818571428572
5	1155	135	10.518571428572
5	1156	136	9.2185714285715
5	1157	137	7.9185714285715
5	1158	138	6.6185714285715
5	1159	139	5.3185714285715
5	1224	140	4.38
5	1225	141	4.38
5	1226	142	4.38
5	1227	143	4.38
5	1228	144	4.38
5	1288	145	4.38
5	1289	146	4.38
5	1290	147	4.38
5	1292	148	4.38
5	1293	149	4.38
5	1363	150	4.38
5	1364	151	4.38
5	1365	152	4.38
5	1366	153	4.38
5	1367	154	4.38
5	1437	155	4.38
5	1438	156	4.38
5	1439	157	4.38
5	1440	158	4.38
5	1441	159	4.38
5	1511	160	4.38
5	1512	161	4.38
5	1513	162	4.38
5	1514	163	4.38
5	1515	164	4.38
5	1585	165	4.38
5	1586	166	4.38
5	1587	167	4.38
5	1588	168	4.38
5	1589	169	4.38
5	1659	170	4.38
5	1660	171	4.38
5	1661	172	4.38
5	1662	173	4.38
5	1663	174	4.38
5	1738	175	4.38
5	1739	176	4.38
5	1740	177	4.38
5	1741	178	4.38
5	1742	179	4.38
5	1822	180	4.38
5	1823	181	4.38
5	1824	182	4.38
5	1825	183	4.38
3	855	110	323.4
3	856	111	323.4
3	857	112	323.4
3	858	113	323.4
3	859	114	323.4
3	914	115	323.4
3	915	116	323.4
3	916	117	323.4
3	917	118	323.4
3	918	119	323.4
3	973	120	323.4
3	974	121	323.4
3	975	122	323.4
3	976	123	323.4
3	977	124	323.4
3	1032	125	323.4
3	1033	126	323.4
3	1034	127	323.4
3	1035	128	323.4
3	1036	129	323.4
3	1091	130	323.4
3	1092	131	323.4
3	1093	132	323.4
3	1094	133	323.4
3	1095	134	323.4
3	1155	135	323.4
3	1156	136	323.4
3	1157	137	323.4
3	1158	138	323.4
3	1159	139	323.4
3	1224	140	320
3	1225	141	315.62
3	1226	142	311.24
3	1227	143	306.86
3	1228	144	302.48
3	1288	145	298.1
3	1289	146	293.72
3	1290	147	289.34
3	1292	148	284.96
3	1293	149	280.58
3	1363	150	276.2
3	1364	151	271.82
3	1365	152	267.44
3	1366	153	263.06
3	1367	154	258.68
3	1437	155	254.3
3	1438	156	249.92
3	1439	157	245.54
3	1440	158	241.16
3	1441	159	236.78
3	1511	160	232.4
3	1512	161	228.02
3	1513	162	223.64
3	1514	163	219.26
3	1515	164	214.88
3	1585	165	210.5
3	1586	166	206.12
3	1587	167	201.74
3	1588	168	197.36
3	1589	169	192.98
3	1659	170	188.6
3	1660	171	184.22
3	1661	172	179.84
3	1662	173	175.46
3	1663	174	171.08
3	1738	175	166.7
3	1739	176	162.32
3	1740	177	157.94
3	1741	178	153.56
3	1742	179	149.18
3	1822	180	144.8
3	1823	181	140.42
3	1824	182	136.04
3	1825	183	131.66
2	855	110	398.31
2	856	111	384.42
2	857	112	370.53
2	858	113	356.64
2	859	114	342.75
2	914	115	328.86
2	915	116	314.97
2	916	117	301.08
2	917	118	287.19
2	918	119	273.3
2	973	120	259.41
2	974	121	245.52
2	975	122	231.63
2	976	123	217.74
2	977	124	203.85
2	1032	125	189.96
2	1033	126	176.07
2	1034	127	162.18
2	1035	128	148.29
2	1036	129	134.4
2	1091	130	120.51
2	1092	131	106.62
2	1093	132	92.730000000001
2	1094	133	79.611428571429
2	1095	134	67.792857142858
2	1155	135	57.274285714286
2	1156	136	48.055714285715
2	1157	137	40.137142857143
2	1158	138	33.518571428571
2	1159	139	28.2
2	1224	140	26.6
2	1225	141	26.6
2	1226	142	26.6
2	1227	143	26.6
2	1228	144	26.6
2	1288	145	26.6
2	1289	146	26.6
2	1290	147	26.6
2	1292	148	26.6
2	1293	149	26.6
2	1363	150	26.6
2	1364	151	26.6
2	1365	152	26.6
2	1366	153	26.6
2	1367	154	26.6
2	1437	155	26.6
2	1438	156	26.6
2	1439	157	26.6
2	1440	158	26.6
2	1441	159	26.6
2	1511	160	26.6
2	1512	161	26.6
2	1513	162	26.6
2	1514	163	26.6
2	1515	164	26.6
2	1585	165	26.6
2	1586	166	26.6
2	1587	167	26.6
2	1588	168	26.6
2	1589	169	26.6
2	1659	170	26.6
2	1660	171	26.6
2	1661	172	26.6
2	1662	173	26.6
2	1663	174	26.6
2	1738	175	26.6
2	1739	176	26.6
2	1740	177	26.6
2	1741	178	26.6
2	1742	179	26.6
2	1822	180	26.6
2	1823	181	26.6
2	1824	182	26.6
2	1825	183	26.6
vector 85 cegNetwork.node[17].veinsmobility posx ETV
vector 86 cegNetwork.node[17].veinsmobility posy ETV
vector 87 cegNetwork.node[17].veinsmobility speed ETV
vector 88 cegNetwork.node[17].veinsmobility acceleration ETV
vector 89 cegNetwork.node[17].veinsmobility co2emission ETV
vector 90 cegNetwork.node[18].veinsmobility posx ETV
vector 91 cegNetwork.node[18].veinsmobility posy ETV
vector 92 cegNetwork.node[18].veinsmobility speed ETV
vector 93 cegNetwork.node[18].veinsmobility acceleration ETV
vector 94 cegNetwork.node[18].veinsmobility co2emission ETV
vector 95 cegNetwork.node[19].veinsmobility posx ETV
vector 96 cegNetwork.node[19].veinsmobility posy ETV
vector 97 cegNetwork.node[19].veinsmobility speed ETV
10	855	110	824.00212619024
10	856	111	819.05214361642
10	857	112	811.72423106688
10	858	113	802.52592999909
10	859	114	791.10208029508
10	914	115	777.24068781515
10	915	116	761.94869380691
10	916	117	746.96004840865
10	917	118	731.97072139113
10	918	119	717.48090658524
10	973	120	702.3833068086
10	974	121	687.54208221566
10	975	122	672.06442123528
10	976	123	657.43606729131
10	977	124	647.30771334735
10	1032	125	641.67935940338
10	1033	126	640.55100545941
10	1034	127	640.05480425662
10	1035	128	639.78808172141
10	1036	129	639.69306417493
10	1091	130	639.62750315423
10	1092	131	639.60355359181
10	1093	132	638.14478474464
10	1094	133	634.60053556079
10	1095	134	629.99773533746
10	1155	135	626.78306977344
10	1156	136	624.25611770985
10	1157	137	623.4
10	1158	138	623.4
10	1159	139	620.2
10	1224	140	620.2
10	1225	141	620.2
10	1226	142	620.2
10	1227	143	621.83053883609
10	1228	144	630.42488587691
10	1288	145	641.17672471186
10	1289	146	654.19842138981
10	1290	147	669.6662477841
10	1292	148	684.33437666922
10	1293	149	698.64782076933
10	1363	150	713.65836320562
10	1364	151	728.88014470863
10	1365	152	743.52369790424
10	1366	153	758.49710710386
10	1367	154	773.78987663383
10	1437	155	788.45941170741
10	1438	156	802.71353702476
10	1439	157	817.30071377892
10	1440	158	831.96661161487
10	1441	159	834.68428170657
10	1511	160	844.89160984829
10	1512	161	855.83181764706
10	1513	162	866.66159061497
10	1514	163	877.43205601907
10	1515	164	888.00955774253
10	1585	165	898.40528888115
10	1586	166	908.60850746069
10	1587	167	919.77947489507
10	1588	168	926.6
10	1589	169	926.6
10	1659	170	926.6
10	1660	171	926.6
10	1661	172	926.6
10	1662	173	926.6
10	1663	174	926.6
10	1738	175	928.72395820271
10	1739	176	935.8064006238
10	1740	177	944.92561662356
10	1741	178	955.85713282286
10	1742	179	969.13013032978
10	1822	180	983.87969004552
10	1823	181	998.9098135018
10	1824	182	1013.618703805
10	1825	183	1028.3499623237
10	1826	184	1043.3817081073
10	1906	185	1058.8351010323
10	1907	186	1073.6888145561
10	1908	187	1088.1223136472
10	1909	188	1103.1784584064
10	1910	189	1115.8693741298
10	1995	190	1124.3070082852
10	1996	191	1126.1868060603
10	1997	192	1122.4960977209
10	1998	193	1116.8935411069
10	1999	194	1109.9767672054
10	2094	195	1100.9630308875
10	2095	196	1089.5909405165
10	2096	197	1076.9179392332
10	2097	198	1062.9302802438
10	2098	199	1047.4586428153
10	2198	200	1033.0933546894
11	855	110	123.4
11	856	111	123.4
11	857	112	123.4
11	858	113	123.4
11	859	114	123.4
11	914	115	123.4
11	915	116	123.4
11	916	117	123.4
11	917	118	123.4
11	918	119	123.4
11	973	120	123.4
11	974	121	123.4
11	975	122	123.4
11	976	123	123.4
11	977	124	123.4
11	1032	125	123.4
11	1033	126	123.4
11	1034	127	123.4
11	1035	128	123.4
11	1036	129	123.4
11	1091	130	123.4
11	1092	131	123.4
11	1093	132	123.48419770889
11	1094	133	124.13975056545
11	1095	134	126.15071142135
11	1155	135	129.23418603351
11	1156	136	135.35284648845
11	1157	137	144.00762758638
11	1158	138	155.14168997554
11	1159	139	168.65040055276
11	1224	140	182.89388240182
11	1225	141	197.28212556768
11	1226	142	212.4823901831
11	1227	143	222.91756472681
11	1228	144	229.20355512527
11	1288	145	229.8
11	1289	146	229.8
11	1290	147	233
11	1292	148	233
11	1293	149	233
11	1363	150	233
11	1364	151	233
11	1365	152	233
11	1366	153	233
11	1367	154	233
11	1437	155	233
11	1438	156	233
11	1439	157	233
11	1440	158	231.29369567143
11	1441	159	217.57571829343
11	1511	160	207.36839015171
11	1512	161	196.42818235294
11	1513	162	185.59840938503
11	1514	163	174.82794398093
11	1515	164	164.25044225747
11	1585	165	153.85471111885
11	1586	166	143.65149253931
11	1587	167	133.08800635118
11	1588	168	120.46443979716
11	1589	169	106.14456979382
11	1659	170	91.648862421413
11	1660	171	76.275951930947
11	1661	172	61.662550593168
11	1662	173	46.807123055499
11	1663	174	35.875220522215
11	1738	175	28.525625078371
11	1739	176	26.6
11	1740	177	26.6
11	1741	178	26.6
11	1742	179	26.6
11	1822	180	26.6
11	1823	181	26.6
11	1824	182	26.6
11	1825	183	26.6
11	1826	184	26.6
11	1906	185	26.6
11	1907	186	26.6
11	1908	187	26.6
11	1909	188	26.6
11	1910	189	26.6
11	1995	190	26.6
11	1996	191	24.191204040193
11	1997	192	23.4
11	1998	193	23.4
11	1999	194	23.4
11	2094	195	23.4
11	2095	196	23.4
11	2096	197	23.4
11	2097	198	23.4
11	2098	199	20.2
11	2198	200	20.2
12	855	110	3.2977004374451
12	856	111	4.9499825738211
12	857	112	7.3279125495422
12	858	113	9.1983010677927
12	859	114	11.423849704008
12	914	115	13.861392479933
12	915	116	15.291994008232
12	916	117	14.988645398264
12	917	118	14.989327017517
12	918	119	14.489814805888
12	973	120	15.097599776645
12	974	121	14.841224592944
12	975	122	15.477660980375
12	976	123	14.628353943967
12	977	124	10.128353943967
12	1032	125	5.628353943967
12	1033	126	1.128353943967
12	1034	127	0.49620120279026
12	1035	128	0.26672253520984
12	1036	129	0.095017546482964
12	1091	130	0.06556102070433
12	1092	131	0.023949562412718
12	1093	132	1.4663036695021
12	1094	133	3.6029143704372
12	1095	134	5.1680629898133
12	1155	135	4.5402067343629
12	1156	136	6.6598529314547
12	1157	137	8.7038404826232
12	1158	138	11.13406238916
12	1159	139	13.508710577215
[...]
65	1822	180	1.5642673564376
65	1823	181	1.5848666319624
65	1824	182	2.5404571905732
65	1825	183	2.3513256142614
65	1826	184	-0.082175572997903
65	1906	185	-0.072126518120058
65	1907	186	0.98054349010344
65	1908	187	-0.88715140430722
65	1909	188	0.77038369220682
65	1910	189	0.11899063701276
65	1995	190	0.0092575442278751
65	1996	191	0.039379205508158
65	1997	192	-3.562821254781
65	1998	193	-1.1448215806563
65	1999	194	-0.15953970069531
65	2094	195	0.54342587012798
65	2095	196	2.3088123890804
65	2096	197	1.9617419378254
65	2097	198	-0.12026187628508
65	2098	199	0.17737503289245
65	2198	200	-0.19931908436119
66	1364	151	2.7913549380567
66	1365	152	4.261953180365
66	1366	153	3.9705532320029
66	1367	154	6.6525102893647
66	1437	155	6.6965293408497
66	1438	156	9.2045927030796
66	1439	157	7.7185711119425
66	1440	158	0.973
66	1441	159	0.973
66	1511	160	0.973
66	1512	161	4.9774615860939
66	1513	162	4.9903037178103
66	1514	163	4.8395623776234
66	1515	164	9.2073197191706
66	1585	165	10.544234304881
66	1586	166	5.9665421900216
66	1587	167	0.973
66	1588	168	0.973
66	1589	169	1.3263059049043
66	1659	170	5.2023575383925
66	1660	171	1.4625795244053
66	1661	172	1.8503054641711
66	1662	173	0.973
66	1663	174	0.973
66	1738	175	0.973
66	1739	176	0.973
66	1740	177	1.4820137070154
66	1741	178	3.209044038686
66	1742	179	3.4911486813248
66	1822	180	4.5820928262723
66	1823	181	5.3383124373384
66	1824	182	9.3196999348307
66	1825	183	10.326994731099
66	1826	184	1.7993024345022
66	1906	185	1.8279123755261
66	1907	186	5.8136276634356
66	1908	187	0.973
66	1909	188	5.0010496561361
66	1910	189	2.6257769741518
66	1995	190	2.2207247390431
66	1996	191	2.3371298251267
66	1997	192	0.973
66	1998	193	0.973
66	1999	194	1.3212985906583
66	2094	195	3.2216470820733
66	2095	196	9.4286440756089
66	2096	197	9.4431681968791
66	2097	198	1.7298012632463
66	2098	199	2.8500864473627
66	2198	200	1.4381734234093
67	1364	151	1.4562435342232
67	1365	152	3.1716574880294
67	1366	153	5.7368542232318
67	1367	154	7.70428965725
67	1437	155	9.2416848202236
67	1438	156	10.587149948673
67	1439	157	12.839837135093
67	1440	158	12.616334496878
67	1441	159	11.875891398636
67	1511	160	12.198616496029
67	1512	161	12.714108491081
67	1513	162	12.513455269367
67	1514	163	12.007842918227
67	1515	164	12.404187828626
67	1585	165	12.693995240072
67	1586	166	12.626504602956
67	1587	167	12.587984206082
67	1588	168	9.0998715880618
67	1589	169	9.9074407849226
67	1659	170	10.219484859938
67	1660	171	10.085110256285
67	1661	172	12.197164048999
67	1662	173	12.393501225437
67	1663	174	12.539186031439
67	1738	175	12.481371947026
67	1739	176	12.807849908454
67	1740	177	12.087952566796
67	1741	178	9.0196451159709
67	1742	179	5.268569501343
67	1822	180	0.95315013989763
67	1823	181	2.7706359896432
67	1824	182	4.8239365486983
67	1825	183	6.5952136534355
67	1826	184	8.078277056254
67	1906	185	10.468747027949
67	1907	186	12.11325796727
67	1908	187	12.845572059296
67	1909	188	12.098012991084
67	1910	189	12.918822732449
67	1995	190	11.994599589959
67	1996	191	11.896685053941
67	1997	192	10.935938635931
67	1998	193	6.7351009851993
67	1999	194	6.6748738307984
67	2094	195	9.0584236657725
67	2095	196	11.36686730364
67	2096	197	12.726819359508
67	2097	198	12.489600936134
67	2098	199	13.069171713057
67	2198	200	12.248321366587
68	1365	152	1.7154139538063
68	1366	153	2.5651967352023
68	1367	154	1.9674354340183
68	1437	155	1.5373951629736
68	1438	156	1.3454651284497
68	1439	157	2.2526871864192
68	1440	158	-0.22350263821427
68	1441	159	-0.74044309824239
68	1511	160	0.32272509739269
68	1512	161	0.51549199505243
68	1513	162	-0.20065322171431
68	1514	163	-0.50561235114001
68	1515	164	0.39634491039906
68	1585	165	0.28980741144624
68	1586	166	-0.067490637116133
68	1587	167	-0.038520396873356
68	1588	168	-3.4881126180206
68	1589	169	0.8075691968608
68	1659	170	0.312044075015
68	1660	171	-0.13437460365239
68	1661	172	2.1120537927141
68	1662	173	0.1963371764378
68	1663	174	0.14568480600137
68	1738	175	-0.057814084412531
68	1739	176	0.32647796142846
68	1740	177	-0.71989734165836
68	1741	178	-3.0683074508252
68	1742	179	-3.7510756146279
68	1822	180	-4.3154193614454
68	1823	181	1.8174858497456
68	1824	182	2.0533005590551
68	1825	183	1.7712771047372
68	1826	184	1.4830634028185
68	1906	185	2.390469971695
68	1907	186	1.6445109393215
68	1908	187	0.73231409202574
68	1909	188	-0.74755906821228
68	1910	189	0.82080974136479
68	1995	190	-0.92422314248979
68	1996	191	-0.097914536017925
68	1997	192	-0.96074641800955
68	1998	193	-4.2008376507321
68	1999	194	-0.060227154400909
68	2094	195	2.3835498349741
68	2095	196	2.3084436378675
68	2096	197	1.3599520558685
68	2097	198	-0.237218423374
68	2098	199	0.57957077692263
68	2198	200	-0.82085034647025
69	1365	152	2.5771581343387
69	1366	153	4.9507822549478
69	1367	154	5.1769033489851
69	1437	155	5.0528927236712
69	1438	156	5.1633076806727
69	1439	157	8.8956576976229
69	1440	158	1.2245561366034
69	1441	159	0.973
69	1511	160	2.8149189294641
69	1512	161	3.4927063599288
69	1513	162	1.2895413651287
69	1514	163	0.973
69	1515	164	3.0695254727575
69	1585	165	2.7979115258884
69	1586	166	1.6996905139559
69	1587	167	1.7846491935651
69	1588	168	0.973
69	1589	169	3.6059998415249
69	1659	170	2.4701161005283
69	1660	171	1.3646644187349
69	1661	172	8.0744372934131
69	1662	173	2.4701440185676
69	1663	174	2.3372713173493
69	1738	175	1.7178180600855
69	1739	176	2.9296767401826
69	1740	177	0.973
69	1741	178	0.973
69	1742	179	0.973
69	1822	180	0.973
69	1823	181	2.4591978485113
69	1824	182	3.7401796465412
69	1825	183	4.2700041036872
69	1826	184	4.4357199724834
69	1906	185	7.7520797080945
69	1907	186	6.6593497670287
69	1908	187	4.1925649918309
69	1909	188	0.973
69	1910	189	4.4879209004907
69	1995	190	0.973
69	1996	191	1.5587082544365
69	1997	192	0.973
69	1998	193	0.973
69	1999	194	1.3625845609556
69	2094	195	6.8191228119241
69	2095	196	8.1177963641834
69	2096	197	6.0855656958542
69	2097	198	1.1784499274973
69	2098	199	3.7721271552337
69	2198	200	0.973
70	1514	163	33.3
70	1515	164	35.415214264486
70	1585	165	38.855069845822
70	1586	166	44.767275036778
70	1587	167	52.203837596579
70	1588	168	62.189791329158
70	1589	169	73.580960628903
70	1659	170	86.281307118061
70	1660	171	98.142485254096
70	1661	172	110.90647891124
70	1662	173	123.40109293619
70	1663	174	135.90229825923
70	1738	175	148.16770004456
70	1739	176	159.85284876025
70	1740	177	172.60978317054
70	1741	178	185.39323678997
70	1742	179	197.47004972513
70	1822	180	209.66941289935
70	1823	181	221.66630050797
70	1824	182	234.0324243086
70	1825	183	246.35468389621
70	1826	184	258.97971500411
70	1906	185	271.75982437335
70	1907	186	283.6238840066
70	1908	187	295.7109109467
70	1909	188	304.66137645941
70	1910	189	309.11184197213
70	1995	190	309.88809681864
70	1996	191	310.2776835014
70	1997	192	310.37265573268
70	1998	193	310.39741520983
70	1999	194	310.39822454444
70	2094	195	310.39874952218
70	2095	196	310.39897448804
70	2096	197	310.39897448804
70	2097	198	310.39897448804
70	2098	199	310.39897448804
70	2198	200	310.39897448804
71	1514	163	126.6
71	1515	164	126.6
71	1585	165	126.6
71	1586	166	126.6
71	1587	167	126.6
71	1588	168	126.6
71	1589	169	126.6
71	1659	170	126.6
71	1660	171	126.6
71	1661	172	126.6
71	1662	173	126.6
71	1663	174	126.6
71	1738	175	126.6
71	1739	176	126.6
71	1740	177	126.6
71	1741	178	126.6
71	1742	179	126.6
71	1822	180	126.6
71	1823	181	126.6
71	1824	182	126.6
71	1825	183	126.6
71	1826	184	126.6
71	1906	185	126.6
71	1907	186	126.6
71	1908	187	126.6
71	1909	188	126.6
71	1910	189	126.6
71	1995	190	126.6
71	1996	191	126.6
71	1997	192	126.6
71	1998	193	126.6
71	1999	194	126.6
71	2094	195	126.6
71	2095	196	126.6
71	2096	197	126.6
71	2097	198	126.6
71	2098	199	126.6
71	2198	200	126.6
72	1515	164	2.115214264486
72	1585	165	3.4398555813357
72	1586	166	5.9122051909566
72	1587	167	7.4365625598002
72	1588	168	9.9859537325799
72	1589	169	11.391169299744
72	1659	170	12.700346489158
72	1660	171	11.861178136035
72	1661	172	12.763993657148
72	1662	173	12.49461402495
72	1663	174	12.501205323032
72	1738	175	12.265401785332
72	1739	176	11.685148715694
72	1740	177	12.756934410288
72	1741	178	12.783453619434
72	1742	179	12.076812935155
72	1822	180	12.19936317422
72	1823	181	11.996887608618
72	1824	182	12.366123800632
72	1825	183	12.322259587609
72	1826	184	12.625031107898
72	1906	185	12.780109369243
72	1907	186	11.86405963325
72	1908	187	12.0870269401
72	1909	188	8.9504655127149
72	1910	189	4.4504655127149
72	1995	190	0.77625484650784
72	1996	191	0.38958668276096
72	1997	192	0.094972231283001
72	1998	193	0.024759477149933
72	1999	194	0.00080933461190597
72	2094	195	0.00052497774053741
72	2095	196	0.00022496585740068
72	2096	197	0
72	2097	198	0
72	2098	199	0
72	2198	200	0
73	1585	165	1.3246413168497
73	1586	166	2.4723496096209
73	1587	167	1.5243573688436
73	1588	168	2.5493911727797
73	1589	169	1.4052155671641
73	1659	170	1.309177189414
73	1660	171	-0.83916835312266
73	1661	172	0.90281552111264
73	1662	173	-0.26937963219825
73	1663	174	0.0065912980819114
73	1738	175	-0.23580353769939
73	1739	176	-0.58025306963827
73	1740	177	1.0717856945936
73	1741	178	0.0265192091465
73	1742	179	-0.70664068427868
73	1822	180	0.12255023906473
73	1823	181	-0.20247556560207
73	1824	182	0.36923619201407
73	1825	183	-0.043864213023335
73	1826	184	0.30277152028866
73	1906	185	0.15507826134563
73	1907	186	-0.91604973599315
73	1908	187	0.22296730685048
73	1909	188	-3.1365614273856
73	1910	189	-4.5
73	1995	190	-3.6742106662071
73	1996	191	-0.38666816374688
73	1997	192	-0.29461445147796
73	1998	193	-0.070212754133068
73	1999	194	-0.023950142538027
73	2094	195	-0.00028435687136856
73	2095	196	-0.00030001188313674
73	2096	197	-0.00022496585740068
73	2097	198	0
73	2098	199	0
73	2198	200	0
74	1585	165	2.3778332139715
74	1586	166	4.9370016543742
74	1587	167	4.238702460524
74	1588	168	7.8191152147798
74	1589	169	5.653754247429
74	1659	170	5.919015475281
74	1660	171	0.973
74	1661	172	4.6950084072219
74	1662	173	0.973
74	1663	174	1.913396043568
74	1738	175	1.1751149771184
74	1739	176	0.973
74	1740	177	5.212298855224
74	1741	178	2.0013567265852
74	1742	179	0.973
74	1822	180	2.2265204214466
74	1823	181	1.2628289252163
74	1824	182	2.9816449227794
74	1825	183	1.7470036029733
74	1826	184	2.8261499752518
74	1906	185	2.3969853072737
74	1907	186	0.973
74	1908	187	2.5057050299837
74	1909	188	0.973
74	1910	189	0.973
74	1995	190	0.973
74	1996	191	0.973
74	1997	192	0.973
74	1998	193	1.1107754366892
74	1999	194	1.110034370835
74	2094	195	1.1100252889495
74	2095	196	1.1100108360873
74	2096	197	0.973
74	2097	198	0.973
74	2098	199	0.973
74	2198	200	0.973
75	1662	173	933
75	1663	174	933
75	1738	175	933
75	1739	176	933
75	1740	177	933
75	1741	178	933
75	1742	179	933
75	1822	180	933
75	1823	181	933
75	1824	182	933
75	1825	183	933
75	1826	184	933.94397760006
75	1906	185	937.22503928833
75	1907	186	942.24050199098
75	1908	187	949.54232542868
75	1909	188	958.6117960644
75	1910	189	970.25638858534
75	1995	190	982.91058543005
75	1996	191	996.08627171671
75	1997	192	1008.704978148
75	1998	193	1022.4023398183
75	1999	194	1035.8806701038
75	2094	195	1048.9779133812
75	2095	196	1062.6256725327
75	2096	197	1075.8898130747
75	2097	198	1088.3619569482
75	2098	199	1101.3679844363
75	2198	200	1112.9737611752
76	1662	173	120.97
76	1663	174	118.90713271925
76	1738	175	114.67326323116
76	1739	176	108.78733992535
76	1740	177	101.49261769087
76	1741	178	91.61751291268
76	1742	179	79.963071108824
76	1822	180	66.500586689675
76	1823	181	52.910822574565
76	1824	182	42.081354647341
76	1825	183	35.751886720117
76	1826	184	33.093717485705
76	1906	185	29.8
76	1907	186	29.8
76	1908	187	26.6
76	1909	188	26.6
76	1910	189	26.6
76	1995	190	26.6
76	1996	191	26.6
76	1997	192	26.6
76	1998	193	26.6
76	1999	194	26.6
76	2094	195	26.6
76	2095	196	26.6
76	2096	197	26.6
76	2097	198	26.6
76	2098	199	26.6
76	2198	200	26.6
77	1663	174	2.0628672807477
77	1738	175	4.2338694880949
77	1739	176	5.8859233058058
77	1740	177	7.294722234481
77	1741	178	9.8751047781901
77	1742	179	11.654441803857
77	1822	180	13.462484419148
77	1823	181	13.58976411511
77	1824	182	10.829467927224
77	1825	183	6.329467927224
77	1826	184	3.0693077611463
77	1906	185	3.2876182472991
77	1907	186	5.0154627026483
77	1908	187	7.3018234376987
77	1909	188	9.0694706357276
77	1910	189	11.64459252094
77	1995	190	12.654196844704
77	1996	191	13.175686286658
77	1997	192	12.618706431298
77	1998	193	13.697361670284
77	1999	194	13.47833028551
77	2094	195	13.097243277415
77	2095	196	13.647759151517
77	2096	197	13.26414054198
77	2097	198	12.472143873445
77	2098	199	13.006027488097
77	2198	200	11.605776738944
78	1738	175	2.1710022073472
78	1739	176	1.6520538177108
78	1740	177	1.4087989286752
78	1741	178	2.5803825437091
78	1742	179	1.7793370256666
78	1822	180	1.8080426152916
78	1823	181	0.12727969596162
78	1824	182	-2.760296187886
78	1825	183	-4.5
78	1826	184	-3.2601601660777
78	1906	185	0.21831048615277
78	1907	186	1.7278444553493
78	1908	187	2.2863607350504
78	1909	188	1.7676471980289
78	1910	189	2.5751218852121
78	1995	190	1.0096043237647
78	1996	191	0.5214894419536
78	1997	192	-0.55697985535953
78	1998	193	1.0786552389851
78	1999	194	-0.21903138477355
78	2094	195	-0.38108700809535
78	2095	196	0.55051587410271
78	2096	197	-0.38361860953737
78	2097	198	-0.79199666853529
78	2098	199	0.53388361465186
78	2198	200	-1.4002507491528
79	1738	175	3.5364622878689
79	1739	176	3.7562249047773
79	1740	177	3.9744645118328
79	1741	178	7.8163887452017
79	1742	179	6.8161041924387
79	1822	180	7.8509470278791
79	1823	181	2.414278892269
79	1824	182	0.973
79	1825	183	0.973
79	1826	184	0.973
79	1906	185	1.4448481863625
79	1907	186	3.4520921451133
79	1908	187	5.5216030327021
79	1909	188	5.4800484870792
79	1910	189	9.0442833463868
79	1995	190	4.9865771614953
79	1996	191	3.6127981586373
79	1997	192	0.973
79	1998	193	5.5688723820064
79	1999	194	1.2749138579177
79	2094	195	0.973
79	2095	196	3.8139068542273
79	2096	197	0.973
79	2097	198	0.973
79	2098	199	3.6140824974782
79	2198	200	0.973
80	1740	177	33.3
80	1741	178	34.722535243398
80	1742	179	37.659754570969
80	1822	180	41.989853548282
80	1823	181	47.627842965187
80	1824	182	55.405493621482
80	1825	183	65.047112943069
80	1826	184	76.055124096479
80	1906	185	89.516892116726
80	1907	186	102.94360241411
80	1908	187	117.07568417567
80	1909	188	130.33432505418
80	1910	189	144.68921110407
80	1995	190	158.30836014453
80	1996	191	171.61162971483
80	1997	192	184.97578026602
80	1998	193	198.43525478583
80	1999	194	212.54595051556
80	2094	195	226.38087647119
80	2095	196	240.48874920536
80	2096	197	254.63186330646
80	2097	198	269.02241910757
80	2098	199	283.39788513533
80	2198	200	294.25967426536
81	1740	177	126.6
81	1741	178	126.6
81	1742	179	126.6
81	1822	180	126.6
81	1823	181	126.6
81	1824	182	126.6
81	1825	183	126.6
81	1826	184	126.6
81	1906	185	126.6
81	1907	186	126.6
81	1908	187	126.6
81	1909	188	126.6
81	1910	189	126.6
81	1995	190	126.6
81	1996	191	126.6
81	1997	192	126.6
81	1998	193	126.6
81	1999	194	126.6
81	2094	195	126.6
81	2095	196	126.6
81	2096	197	126.6
81	2097	198	126.6
81	2098	199	126.6
81	2198	200	126.6
82	1741	178	1.4225352433976
82	1742	179	2.9372193275718
82	1822	180	4.3300989773124
82	1823	181	5.6379894169047
82	1824	182	7.777650656295
82	1825	183	9.6416193215875
82	1826	184	11.00801115341
82	1906	185	13.461768020247
82	1907	186	13.426710297379
82	1908	187	14.132081761562
82	1909	188	13.25864087851
82	1910	189	14.354886049896
82	1995	190	13.619149040456
82	1996	191	13.303269570299
82	1997	192	13.364150551196
82	1998	193	13.459474519805
82	1999	194	14.110695729733
82	2094	195	13.834925955629
82	2095	196	14.107872734174
82	2096	197	14.143114101097
82	2097	198	14.390555801105
82	2098	199	14.375466027765
82	2198	200	10.861789130029
83	1742	179	1.5146840841742
83	1822	180	1.3928796497406
83	1823	181	1.3078904395923
83	1824	182	2.1396612393903
83	1825	183	1.8639686652925
83	1826	184	1.3663918318227
83	1906	185	2.4537568668369
83	1907	186	-0.0350577228684
83	1908	187	0.70537146418355
83	1909	188	-0.87344088305253
83	1910	189	1.0962451713858
83	1995	190	-0.73573700943962
83	1996	191	-0.31587947015651
83	1997	192	0.060880980896764
83	1998	193	0.095323968608863
83	1999	194	0.65122120992746
83	2094	195	-0.27576977410354
83	2095	196	0.27294677854516
83	2096	197	0.035241366922856
83	2097	198	0.24744170000777
83	2098	199	-0.015089773340151
83	2198	200	-3.5136768977356
84	1742	179	2.3262315622673
84	1822	180	2.7799289852771
84	1823	181	3.1756354920404
84	1824	182	5.5392672684088
84	1825	183	5.9890842352694
84	1826	184	5.3891944077339
84	1906	185	9.9454460913966
84	1907	186	1.8678684407956
84	1908	187	4.454838187669
84	1909	188	0.973
84	1910	189	5.8682274675104
84	1995	190	0.973
84	1996	191	0.973
84	1997	192	2.1712636652093
84	1998	193	2.2937365458072
84	1999	194	4.2648415612569
84	2094	195	1.1025468520704
84	2095	196	2.9779745255536
84	2096	197	2.1737248566269
84	2097	198	2.9376583805959
84	2098	199	2.0256285161516
84	2198	200	0.973
85	1907	186	819.9
85	1908	187	818.14548651655
85	1909	188	813.88978703159
85	1910	189	807.69117693556
85	1995	190	799.88219147357
85	1996	191	790.00977182784
85	1997	192	777.85837154272
85	1998	193	764.16322328173
85	1999	194	750.85714020321
85	2094	195	737.56444975009
85	2095	196	724.34546741137
85	2096	197	711.04473906424
85	2097	198	697.82298210395
85	2098	199	684.42385252646
85	2198	200	670.77206980651
86	1907	186	17
86	1908	187	17
86	1909	188	17
86	1910	189	20.2
86	1995	190	20.2
86	1996	191	20.2
86	1997	192	23.4
86	1998	193	23.4
86	1999	194	23.4
86	2094	195	23.4
86	2095	196	23.4
86	2096	197	23.4
86	2097	198	23.4
86	2098	199	23.4
86	2198	200	23.4
87	1908	187	1.754513483448
87	1909	188	4.2556994849583
87	1910	189	6.198610096029
87	1995	190	7.8089854619931
87	1996	191	9.8724196457304
87	1997	192	12.151400285121
87	1998	193	13.695148260985
87	1999	194	13.30608307852
87	2094	195	13.29269045312
87	2095	196	13.21898233872
87	2096	197	13.30072834713
87	2097	198	13.221756960289
87	2098	199	13.399129577494
87	2198	200	13.651782719955
88	1909	188	2.5011860015104
88	1910	189	1.9429106110707
88	1995	190	1.6103753659641
88	1996	191	2.0634341837373
88	1997	192	2.2789806393906
88	1998	193	1.5437479758643
88	1999	194	-0.38906518246513
88	2094	195	-0.013392625399865
88	2095	196	-0.073708114400507
88	2096	197	0.08174600841012
88	2097	198	-0.078971386840568
88	2098	199	0.17737261720467
88	2198	200	0.25265314246062
89	1909	188	3.8876903650607
89	1910	189	4.3334688456341
89	1995	190	4.5613665942594
89	1996	191	6.5845658513757
89	1997	192	8.5358990829
89	1998	193	7.1031280198289
89	1999	194	0.973
89	2094	195	1.9253114320054
89	2095	196	1.7262526700692
89	2096	197	2.2310316438399
89	2097	198	1.709700506073
89	2098	199	2.5513738140038
89	2198	200	2.8348504250386
90	1995	190	633
90	1996	191	633
90	1997	192	633
90	1998	193	633
90	1999	194	633
90	2094	195	633
90	2095	196	633
90	2096	197	633
90	2097	198	633
90	2098	199	633
90	2198	200	635.03062057922
91	1995	190	106.3
91	1996	191	104.37248724827
91	1997	192	100.71480075186
91	1998	193	95.688165641041
91	1999	194	88.302015561867
91	2094	195	79.310963168996
91	2095	196	68.736094133253
91	2096	197	55.928339698492
91	2097	198	43.760250748694
91	2098	199	35.424815084737
91	2198	200	29.8
92	1996	191	1.9275127517292
92	1997	192	3.6576864964096
92	1998	193	5.0266351108206
92	1999	194	7.386150079174
92	2094	195	8.9910523928702
92	2095	196	10.574869035743
92	2096	197	12.807754434762
92	2097	198	12.168088949798
92	2098	199	8.3354356639567
92	2198	200	3.8354356639567
93	1997	192	1.7301737446804
93	1998	193	1.3689486144111
93	1999	194	2.3595149683533
93	2094	195	1.6049023136962
93	2095	196	1.583816642873
93	2096	197	2.2328853990184
93	2097	198	-0.63966548496392
93	2098	199	-3.832653285841
93	2198	200	-4.5
94	1997	192	2.816119742767
94	1998	193	3.0225882076596
94	1999	194	5.7036155583444
94	2094	195	5.0884442639606
94	2095	196	5.7658012169277
94	2096	197	8.8141086756712
94	2097	198	0.973
94	2098	199	0.973
94	2198	200	0.973
95	2098	199	933
95	2198	200	933
96	2098	199	120.97
96	2198	200	119.54307913825
97	2198	200	1.4269208617508

